7

N     0.0000000    0.0000000   -0.2853278
H    -0.4684205    0.8113281    0.0951093
H    -0.4684205   -0.8113281    0.0951093
H     0.9368410    0.0000000    0.0951093
 Si    0.0000000    0.0000000   -0.6948427
 H     1.0869224    0.0000000    0.3474213
 H    -1.0869224    0.0000000    0.3474213
