25
0 1
W       -0.22551400     0.05409000      0.16192200
C       -1.61999700     1.28508200      0.77661100
O       -2.42868000     2.02914200      1.14991900
C       -1.41999500     0.16183600      -1.36201300
O       -2.09488800     0.24733400      -2.31076100
B       -1.09481000     -1.92470600     -0.56530000
C       1.98061900      0.08670000      1.11315900
C       2.00421500      -0.72645400     -0.05417200
C       1.67200700      0.09938700      -1.16538700
C       1.44453200      1.42430800      -0.68032800
C       1.63317600      1.40871200      0.73424900
H       2.17901200      -0.25224100     2.12872400
H       2.23366500      -1.78860800     -0.09712600
H       1.62399300      -0.22239900     -2.20307100
H       1.20506900      2.29647000      -1.28418800
H       1.54116600      2.26218000      1.40293600
O       -0.24683100     -2.65701000     -1.37730700
O       -2.36567800     -2.36308900     -0.26667300
C       -0.94512500     -0.85141200     2.26603200
H       -2.03551700     -0.82360300     2.36567900
H       -0.48780100     -0.09845400     2.92003100
H       -0.59491300     -1.83863600     2.61211300
H       -0.67580800     -1.43695200     0.93476300
H       -2.61370100     -3.17974300     -0.71884200
H       -0.65935600     -3.45161200     -1.74119800
