6
0 1
C     -0.27924300       0.49315800      -0.00000600
C       1.04351600      0.49314300      0.00000100
H     -0.84816600       1.41593800      0.00000800
H     -0.84818600       -0.42961000     -0.00002600
H       1.61243800      -0.42963700     -0.00001300
H       1.61245900      1.41591100      0.00002000
