8

N     0.0549810   -2.1255994    0.0000000
H    -0.4862269   -2.9797602    0.0000000
H     0.6555228   -2.1464824    0.8134308
H     0.6555228   -2.1464824   -0.8134308
 P     0.0549810    1.1994907    0.0000000
 H    -0.3857959    2.5499033    0.0000000
 H    -0.8242968    0.8048268    1.0357427
 H    -0.8242968    0.8048268   -1.0357427
