8

N     0.7939788   -1.5251896    0.0000000
F    -0.0140210   -2.6757912    0.0000000
H     1.3875296   -1.6632915    0.8147108
H     1.3875296   -1.6632915   -0.8147108
 P     0.0000000    1.0061887    0.0000000
 F    -0.7395928    2.4619233    0.0000000
 H    -0.7751908    0.4174439    1.0317097
 H    -0.7751908    0.4174439   -1.0317097
