8

N     0.8737578   -2.1182834    0.0000000
H     0.2094499   -2.8807262    0.0000000
H     1.4631256   -2.2218154    0.8150708
H     1.4631256   -2.2218154   -0.8150708
 P     0.0000000    0.4181339    0.0000000
 F    -0.8645858    1.8133865    0.0000000
 H    -0.7353678   -0.2200679    1.0319267
 H    -0.7353678   -0.2200679   -1.0319267
