9

N     2.9625822   -0.2028849    0.0000000
H     3.3244151    0.2774729    0.8134138
H     3.3244151    0.2774729   -0.8134138
H     3.3587711   -1.1336397    0.0000000
 P     0.0000000    0.2595699    0.0000000
 H     0.2476049   -0.6600828   -1.0417817
 H     0.2476049   -0.6600828    1.0417817
 C    -1.7849955   -0.0087890    0.0000000
 N    -2.9329872   -0.0745360    0.0000000
