77
-2 1
  O     -2.418932   -0.904770   -1.008217
  C     -1.388974   -0.351763   -0.569425
  C     -1.600468    1.114102   -0.109971
  O     -2.644613    1.329239    0.563348
  C     -0.148028   -1.058826   -0.469782
  C      1.188864   -0.463581   -0.301187
  C      2.309428   -1.178777   -0.479064
  C      3.720776   -0.699368   -0.326464
  O      4.586034   -1.609289   -0.339826
  N      7.171761   -1.135460   -0.372309
  C      7.570915    0.118425   -0.351170
  N      8.881590    0.447697   -0.403840
  C      9.995806   -0.480600   -0.476685
  N      6.662963    1.081843   -0.261240
  N     -1.296224    4.843163   -0.117050
  C     -2.136621    5.077166    0.871470
  N     -2.802695    4.067576    1.424425
  C     -0.676855    5.873689   -0.928963
  N     -2.345436    6.332308    1.315358
  N     -0.038497   -2.461629    1.859766
  C     -1.051689   -1.748786    2.653531
  C     -2.333271   -2.560306    2.406458
  C     -1.849398   -3.920025    1.863708
  C     -0.340371   -3.901444    2.086448
  C      0.476514   -4.895964    1.278038
  H      0.179264   -5.906838    1.551615
  H      2.753122    2.237165   -0.692724
  H     -2.534322   -3.895162   -2.313218
  H      0.914580   -2.210804    2.110100
  H     -5.974734   -2.757585   -2.472921
  H     10.917933    0.085844   -0.387481
  H     -0.141880   -4.090760    3.149534
  H     -2.312201   -4.765596    2.370799
  H     -2.076953   -4.016101    0.799301
  H     -2.900924   -2.664410    3.330009
  H     -2.974692   -2.056425    1.684734
  H     -0.770095   -1.743293    3.708149
  H     -1.126366   -0.714663    2.315318
  H     -1.418860    6.473731   -1.455980
  O      3.962057    0.527025   -0.207685
  O     -0.788284    1.971320   -0.478449
  O     -3.095016   -3.531257   -1.627186
  O      2.110095    2.933645   -0.877216
  N     -5.256067    0.199810    0.302454
  C     -5.870842   -0.509893   -0.637817
  N     -5.180099   -0.966742   -1.665475
  C     -5.711155   -1.743123   -2.773546
  N     -7.196069   -0.726537   -0.539761
  H     -0.024542    6.524306   -0.343273
  H     -1.056709    3.856038   -0.292873
  H     -1.767978    7.095160    1.012446
  H     -3.107653    6.546193    1.931190
  H     -2.714552    3.094724    1.075176
  H     -3.218055    4.188071    2.330301
  H     -6.569345   -1.246321   -3.225795
  H     -4.934296   -1.819356   -3.526079
  H     -4.163478   -0.883781   -1.572946
  H     -7.657823   -1.393249   -1.130948
  H     -7.736643   -0.326660    0.204126
  H     -4.258160    0.464198    0.263158
  H     -5.748786    0.460683    1.136431
  H      9.966530   -1.193195    0.347758
  H     10.026577   -1.027387   -1.421870
  H      9.092799    1.418217   -0.550007
  H      7.819102   -1.871877   -0.586969
  H      6.119874   -1.349251   -0.337200
  H      6.944876    2.030940   -0.099364
  H      5.633279    0.870933   -0.234729
  H     -0.045948    5.379805   -1.661601
  H      1.284817    2.459132   -0.998751
  H     -0.145363   -1.925231   -1.138323
  H     -0.188363   -1.898484    0.706009
  H      1.268194    0.563518    0.032991
  H      2.223229   -2.218529   -0.786589
  H     -2.698028   -2.675827   -1.397779
  H      0.312121   -4.774069    0.206952
  H      1.544543   -4.797620    1.471898
