26
0 1
Ir 0.04582700 0.00149900 -0.04803900
N -0.30383100 0.01755900 -2.05410600
P 0.16362000 -2.24907600 -0.38381300
P 0.08019800 2.21736900 -0.31461400
C -0.22829500 -1.18104400 -2.76068900
C -0.01247000 -2.37793800 -2.09988800
H 0.03104800 -3.30306600 -2.65493500
C -0.56259100 1.16935200 -2.73170900
C -0.37711100 -1.13615200 -4.17922700
C -0.59114100 0.03526400 -4.83092000
H -0.30316300 -2.07116500 -4.71873000
H -0.69157700 0.05054400 -5.91011900
C -0.69251200 1.22741600 -4.09513000
H -0.89262900 2.17489400 -4.57513500
C -0.76588900 2.41612200 -1.92336600
H -1.82895600 2.51430000 -1.68095600
H -0.46775000 3.30467700 -2.47845600
C 0.12081000 -0.08821700 2.30138800
H 0.95320000 -0.05207200 1.46318400
H -0.93935400 -0.08724300 2.02967800
H 0.35747200 -1.00384500 2.83845500
H 0.34300200 0.78545400 2.90947700
H 1.35265900 -2.89265600 0.04910500
H -0.73865400 -3.12356900 0.28031900
H 1.31508900 2.88524700 -0.49071200
H -0.53790100 3.20843800 0.48708400
