29
1 1
C 1.56577800 -0.86114900 -0.73164300
C 0.85915600 -0.10490900 0.09272500
C 1.17312500 -1.87763400 -1.73030300
H 1.60500900 -2.85113200 -1.48534500
H 0.08977700 -1.96876300 -1.74942400
H 1.52265100 -1.60173800 -2.72827400
C 1.55428800 0.82651200 1.03285100
O 3.04122600 0.88211700 0.76331200
C 3.62476300 0.08364400 -0.02841000
O 3.01840000 -0.77599400 -0.74262300
C 1.04000800 2.27608500 0.84290400
O -0.06204100 2.51845000 1.25327500
C 1.90283400 3.28295600 0.15159900
H 2.18364000 2.93163700 -0.84497500
H 1.35238300 4.21656400 0.06793700
H 2.82784200 3.44856600 0.70819200
C 5.09367300 0.15280400 -0.14377700
H 5.36035700 0.37842700 -1.17847400
H 5.49660700 0.90642100 0.52617500
H 5.51366100 -0.82777000 0.09005700
C 1.44147800 0.41468200 2.48613800
H 0.40297800 0.52783000 2.79222300
H 1.73767600 -0.62666600 2.61338400
H 2.06052100 1.05324400 3.11807000
Au -1.19780600 -0.20665300 0.18481000
P -3.46873000 -0.31636400 0.28589000
H -4.12519200 0.70339300 0.99632400
H -4.17800000 -0.27787100 -0.92716800
H -4.04746400 -1.45248700 0.87793100
