34
0 1
C 1.31191100 -1.31794900 0.06179000
C 0.67392900 -0.74228800 1.18430000
C 1.42228700 0.08574000 2.04364300
C 2.75071200 0.38152000 1.77589400
C 3.35322000 -0.20003100 0.65890700
C 2.63392400 -1.04038500 -0.19815200
H -0.22050300 -1.19796200 1.59345400
H 3.31134600 1.03585800 2.42418100
H 3.12448100 -1.42177500 -1.08353500
C 0.49869600 -2.09504500 -0.88376600
C 0.93382700 -3.31659200 -1.38144100
C -0.71863300 -1.55304700 -1.35140000
C 0.18058400 -4.01073000 -2.31695500
H 1.86502400 -3.73399900 -1.01652300
C -1.45053800 -2.25006800 -2.30624900
C -1.01100900 -3.47603700 -2.78006000
H 0.52953700 -4.96757900 -2.68561900
H -2.36972000 -1.81137200 -2.67396100
H -1.59777300 -4.00896800 -3.51792600
C -1.15209600 -0.25944400 -0.84838500
C -0.71071200 0.41125200 0.14635500
H -0.80490000 1.23825200 0.82196200
Au -2.59077800 0.98284500 -1.57167600
Cl -4.23875300 2.20481100 -2.53839900
O 0.74680800 0.55912900 3.09974800
O 4.62880200 0.01371500 0.31508000
C 1.41557300 1.40499800 4.01350600
H 1.75691100 2.32311900 3.52755900
H 0.68594700 1.65417400 4.77984800
H 2.26545800 0.89442000 4.47479800
C 5.41806500 0.87539600 1.10812700
H 6.39724400 0.90231000 0.63651700
H 5.00113500 1.88610200 1.13118800
H 5.51999000 0.49530700 2.12853700
