10

C   -0.808438821  -0.243062083   0.038574485
C    0.533554652   0.513743610  -0.070281243
O    1.560611869  -0.214420190  -0.027568739
O    0.465298866   1.764998179  -0.183236969
H   -0.854283812  -1.014973034  -0.729785233
H   -1.656064871   0.431570596  -0.062379061
H   -0.857515936  -0.748947615   1.003461116
 H    2.599848358   2.445338453  -0.292274220
 O    3.511881166   2.112785642  -0.281437689
 H    3.255005837   1.179077711  -0.191213712