10

C   -0.808438821  -0.243062083   0.038574485
C    0.533554652   0.513743610  -0.070281243
O    1.560611869  -0.214420190  -0.027568739
O    0.465298866   1.764998179  -0.183236969
H   -0.854283812  -1.014973034  -0.729785233
H   -1.656064871   0.431570596  -0.062379061
H   -0.857515936  -0.748947615   1.003461116
 H    4.195427245   3.309538315  -0.405905043
 O    5.107460053   2.976985504  -0.395068512
 H    4.850584724   2.043277573  -0.304844535