12

C    0.687364580  -0.177705402   0.322869765
N   -0.735021639   0.201185335   0.055690011
H   -1.380118913  -0.452570111   0.496181898
H   -0.945342769   1.128728697   0.420157622
H   -0.914689681   0.199140171  -0.968987117
H    0.856655158  -1.164072485  -0.091484742
H    1.326952365   0.545866029  -0.167734951
H    0.859676716  -0.176826300   1.392473464
 O   -0.665758648  -0.027423583  -2.841417716
 C   -1.128915068   0.087977597  -3.963927618
 H   -0.548276567  -0.213500780  -4.840095579
 H   -2.131682578   0.493698708  -4.132686791