12

C    0.687364580  -0.177705402   0.322869765
N   -0.735021639   0.201185335   0.055690011
H   -1.380118913  -0.452570111   0.496181898
H   -0.945342769   1.128728697   0.420157622
H   -0.914689681   0.199140171  -0.968987117
H    0.856655158  -1.164072485  -0.091484742
H    1.326952365   0.545866029  -0.167734951
H    0.859676716  -0.176826300   1.392473464
 O   -0.575243030  -0.109806073  -3.522265781
 C   -1.038399450   0.005595107  -4.644775683
 H   -0.457760949  -0.295883270  -5.520943644
 H   -2.041166960   0.411316218  -4.813534856