14

C    0.687041485  -0.021348442   0.158244910
N   -0.796548184   0.105617965   0.039344613
H   -1.270243847  -0.509648168   0.698373151
H   -1.103958172   1.055158108   0.241676877
H   -1.110658397  -0.147584181  -0.934324277
H    0.958993985  -1.044759456  -0.070634654
H    0.990678267   0.235706496   1.166097459
H    1.144634560   0.652587758  -0.556167114
 O   -1.481711670  -0.694466421  -2.877658725
 C   -1.142212671   0.052021466  -4.062674548
 H   -2.072004961  -1.409456411  -3.134403607
 H   -2.027539266   0.498645885  -4.506312801
 H   -0.462361903   0.839818385  -3.756202295
 H   -0.641055923  -0.584853555  -4.785760770