14

C   -0.105081656   0.282413741   0.022074441
N   -0.785227591  -0.820652291  -0.288990507
N   -0.745585479   1.421570007   0.253246903
N    1.219250263   0.252146159   0.103458752
H   -1.744037401   1.479987848   0.172685895
H    1.727462291  -0.601259621  -0.038822645
H    1.721470076   1.097144758   0.339497536
H   -0.216089211   2.249292326   0.491002112
H   -1.787472355  -0.815092404  -0.340300985
H   -0.312365218  -1.684834579  -0.480883846
 O    1.663948074   3.150376684   0.836952314
 C    2.285605354   4.158257216   1.127570587
 H    3.377331413   4.149600154   1.203532735
 H    1.772557432   5.105163914   1.322191055