13

C    5.082425230   5.694110213   0.467816815
C    4.219648710   4.994294021   1.267596178
N    3.928118405   5.797286100   2.338420520
C    4.577383461   6.954219633   2.222006001
N    5.282709241   6.901057178   1.086603578
H    3.803644392   4.010622797   1.155484436
H    5.553083545   5.435055031  -0.462004958
H    4.542504567   7.778104465   2.910688070
H    5.872413711   7.646727047   0.745823201
H    3.300294311   5.554620966   3.125722341
 O    2.325063788   5.195530204   4.362444492
 H    2.556096542   4.735858925   5.174357090
 H    1.373648218   5.322776766   4.412372080