22
1 1
Au -1.02721300 -0.01850700 -0.00678500
C 1.07171100 0.20757200 -0.12449900
C 1.30898100 -1.01958200 -0.02251100
C 3.89651900 0.51867000 0.72368200
C 3.73008800 -0.95730200 0.53097300
C 3.60237900 -1.59762700 -0.64100600
H 4.97228900 0.71664900 0.78661600
H 3.49862400 0.79638000 1.70457900
H 3.77835800 -1.55842200 1.43551300
H 3.60243200 -1.08276000 -1.59343000
P -3.30248600 -0.03894500 0.09058500
H -3.92268700 1.22066800 0.12224800
H -3.89107900 -0.66516500 1.20169300
H -3.98332900 -0.65656200 -0.97157000
H 3.56712800 -2.67988900 -0.67745200
C 3.27620600 1.39898600 -0.35696000
H 3.68415800 2.40779200 -0.27297900
H 3.55508300 1.04367800 -1.35061100
C 1.75792300 1.51655800 -0.24880100
H 1.48520700 2.11313800 0.62785000
H 1.34982800 2.05212200 -1.10872700
H 1.12825200 -2.06502000 0.10826000
