28
0 1
C -0.47208700 -1.27018400 -0.54426200
C -1.37126300 -0.40891300 -0.41076300
C -0.28318800 -2.67948600 -0.92831100
H -1.25033700 -3.13227000 -1.14753300
H 0.35534000 -2.73620300 -1.81141200
H 0.20785000 -3.22029500 -0.11835900
C -2.08760500 0.86064900 -0.26800000
O -3.38427200 0.60218100 0.32295400
C -3.91616200 -0.56253200 -0.03710700
O -3.28639700 -1.35977200 -0.69808000
C -1.36080600 1.79195600 0.77938500
O -0.79625000 2.76337600 0.37508400
C -1.47255100 1.40135700 2.21660600
H -1.20391400 0.35209000 2.35544400
H -0.81013700 2.03151200 2.80468300
H -2.50386900 1.53512400 2.54979300
C -5.30715300 -0.75581200 0.45505000
H -5.66374500 -1.74116500 0.17088200
H -5.32884700 -0.64284000 1.53984100
H -5.95257400 0.01564300 0.03253100
C -2.25993800 1.56891100 -1.59508200
H -2.81318900 2.49549900 -1.44677700
H -1.27565100 1.80422100 -1.99733700
H -2.78655400 0.92425500 -2.29827900
Au 1.27881900 -0.20432800 -0.04597900
Cl 1.12647600 -1.11846200 2.05137400
Cl 3.31984200 0.69407200 0.43196600
Cl 1.37243400 0.58523600 -2.18957100
