25
1 1
C -0.84934900 2.30745000 -1.04055900
H -0.06903300 3.05232200 -0.87824500
H -0.71127100 1.82203600 -2.00357200
C -0.93799000 1.33161800 0.09038100
C -1.91306100 -1.03054400 -0.36960400
C -1.14282200 0.00582900 -0.13906300
H -1.80709000 2.83935700 -1.06181300
O -3.72603300 0.46474000 -0.24293900
C -1.00025800 1.90018700 1.47311100
H -0.20409000 2.62394800 1.65350100
H -1.95068400 2.44106000 1.54105100
H -0.99102500 1.13245100 2.24293400
H -1.51086600 -2.02616900 -0.51396800
H -4.68068900 0.56114400 -0.25769200
C -3.40926500 -0.89372200 -0.44382300
H -3.69958000 -1.20520000 -1.45906000
C -4.09190500 -1.80436300 0.56420800
H -5.17677100 -1.72663200 0.46526700
H -3.82113900 -2.84849600 0.39807400
H -3.81338800 -1.52490600 1.58110300
Au 0.99434900 -0.09756100 -0.01661200
P 3.21885800 -0.64300000 0.03889300
H 3.90343100 -0.39743200 1.24023700
H 3.51978700 -1.99638400 -0.18454700
H 4.05208500 -0.01141000 -0.89868200
