28
0 1
C -1.69582300 -0.29125200 -0.49635200
C -0.49857500 -2.27840600 -1.35487000
H -1.48047800 -2.65672400 -1.63720500
H 0.11575800 -2.17309600 -2.25420200
H 0.01442100 -3.00224200 -0.71584500
C -1.89494800 1.02042300 0.01000600
O -3.74056800 0.25686500 0.78580300
C -3.89027900 -0.59639200 -0.07130600
O -2.91164800 -0.86660400 -0.93552300
C -1.11900500 1.58325000 1.20881200
O -0.66432300 2.68893900 1.08911900
C -1.08314500 0.77395200 2.45858000
H -0.69554200 -0.23011500 2.27337100
H -0.46136700 1.28307700 3.19102900
H -2.10297300 0.67025600 2.83923000
C -5.11355800 -1.41468000 -0.25942900
H -5.34912200 -1.49133300 -1.32072400
H -4.91667700 -2.42459400 0.10805200
H -5.94181600 -0.98187900 0.29369400
C -2.57779600 2.04877600 -0.79214300
H -3.16813000 2.72616500 -0.17648400
H -1.74332400 2.63911400 -1.19773800
H -3.15902500 1.64157400 -1.61512400
Au 1.25095600 -0.22080300 -0.13422600
Cl 1.32145500 -1.78672600 1.54934700
Cl 3.34773000 0.57563300 0.39973100
Cl 1.04174000 1.24464000 -1.88594500
C -0.54461700 -0.97849400 -0.64673000
