22
1 1
Au -1.11956900 -0.15741700 -0.00299300
C 1.17804300 0.08808900 -0.16020800
C 0.83205300 -1.08754900 -0.07809200
C 4.08520700 0.79840700 0.65104400
C 4.34026200 -0.67754200 0.57422500
C 4.19675600 -1.46773800 -0.48057000
H 5.06235300 1.29292500 0.69221300
H 3.62222400 1.03261400 1.61664700
H 4.73541800 -1.11069500 1.48951300
H 3.83623900 -1.11353800 -1.44002500
P -3.33721500 0.34547800 0.11069600
H -4.18450300 -0.76054300 0.28386900
H -3.90362500 0.97388400 -1.00966300
H -3.74172400 1.18873100 1.15775500
H 4.46682200 -2.51511000 -0.42790100
H 0.87412300 -2.15629000 -0.02156300
C 1.74710300 1.42419100 -0.25737100
H 1.50730400 1.96918500 0.66057400
H 1.26309800 1.95292200 -1.08273300
C 3.27339400 1.42915100 -0.47304700
H 3.53959500 2.48396800 -0.56299600
H 3.50998300 0.97365200 -1.43559600
