39
0, 2
C     1.1686953   -0.2617637    2.7660536
N     1.3535192   -0.2315434    1.4074455
C     2.7107282   -0.2653182    1.2252860
C     3.3918228   -0.3257428    2.4886890
C     2.4313549   -0.3265540    3.4479499
Fe   -0.0343525    0.0393351    0.0000000
N    -1.4587163   -0.1480772    1.4119465
C    -2.8144819   -0.1173297    1.2264184
C    -3.5025001   -0.1443865    2.4885681
C    -2.5460262   -0.1927361    3.4503300
C    -1.2807426   -0.1923822    2.7684712
C    -3.4547157   -0.0861219    0.0000000
C    -2.8144819   -0.1173297   -1.2264184
N    -1.4587163   -0.1480772   -1.4119465
C    -1.2807426   -0.1923822   -2.7684712
C    -2.5460262   -0.1927361   -3.4503300
C    -3.5025001   -0.1443865   -2.4885681
C    -0.0553227   -0.2368680    3.4097054
C    -0.0553227   -0.2368680   -3.4097054
C     1.1686953   -0.2617637   -2.7660536
N     1.3535192   -0.2315434   -1.4074455
C     2.7107282   -0.2653182   -1.2252860
C     3.3918228   -0.3257428   -2.4886890
C     2.4313549   -0.3265540   -3.4479499
C     3.3531438   -0.2641298    0.0000000
H    -0.0539490   -0.2657530    4.4950483
H    -2.6672213   -0.2323168    4.5255683
H    -4.5791541   -0.1357823    2.6036417
H    -4.5402633   -0.0620937    0.0000000
H    -4.5791541   -0.1357823   -2.6036417
H    -2.6672213   -0.2323168   -4.5255683
H    -0.0539490   -0.2657530   -4.4950483
H     2.5480812   -0.3709350   -4.5234817
H     4.4671880   -0.3708847   -2.6067007
H     4.4384755   -0.2902633    0.0000000
H     4.4671880   -0.3708847    2.6067007
H     2.5480812   -0.3709350    4.5234817
N     0.1737821    1.7499453    0.0000000
O     1.0159791    2.5514677    0.0000000


