37
0, 4
Co 0.0000000  0.0000000 0.0000000 
N  1.4412234 -1.4412234 0.0000000
N  1.4412234  1.4412234 0.0000000
N -1.4412234 -1.4412234 0.0000000
N -1.4412234  1.4412234 0.0000000
C -2.8066109  1.2455509 0.0000000
C -1.2455509  2.8066109 0.0000000
C -2.5184373  3.4864720 0.0000000
C -3.4864720  2.5184373 0.0000000
C -3.4373671  0.0000000 0.0000000
C -2.8066109 -1.2455509 0.0000000
C -3.4864720 -2.5184373 0.0000000
C -2.5184373 -3.4864720 0.0000000
C -1.2455509 -2.8066109 0.0000000
C  0.0000000 -3.4373671 0.0000000
C  1.2455509 -2.8066109 0.0000000
C  2.5184373 -3.4864720 0.0000000
C  3.4864720 -2.5184373 0.0000000
C  2.8066109 -1.2455509 0.0000000
C  3.4373671  0.0000000 0.0000000
C  2.8066109  1.2455509 0.0000000
C  3.4864720  2.5184373 0.0000000
C  2.5184373  3.4864720 0.0000000
C  1.2455509  2.8066109 0.0000000
C  0.0000000  3.4373671 0.0000000
H  0.0000000  4.5283580 0.0000000
H -2.6503894  4.5656567 0.0000000
H -4.5656567  2.6503894 0.0000000
H -4.5283580  0.0000000 0.0000000
H -4.5656567 -2.6503894 0.0000000
H -2.6503894 -4.5656567 0.0000000
H  0.0000000 -4.5283580 0.0000000
H  2.6503894 -4.5656567 0.0000000
H  4.5656567 -2.6503894 0.0000000
H  4.5283580  0.0000000 0.0000000
H  4.5656567  2.6503894 0.0000000
H  2.6503894  4.5656567 0.0000000

