37
0, 1
Fe 0.000000  0.000000 0.000000
N  1.406594  1.406594 0.000000
N -1.406594  1.406594 0.000000
N  1.406594 -1.406594 0.000000
N -1.406594 -1.406594 0.000000
C  0.000000  3.398725 0.000000
C  0.000000 -3.398725 0.000000
C  3.398725  0.000000 0.000000  
C -3.398725  0.000000 0.000000  
C  2.485268  3.441695 0.000000
C -2.485268  3.441695 0.000000
C  2.485268 -3.441695 0.000000
C -2.485268 -3.441695 0.000000
C  3.441695  2.485268 0.000000
C -3.441695  2.485268 0.000000
C  3.441695 -2.485268 0.000000
C -3.441695 -2.485268 0.000000
C  1.223292  2.760499 0.000000
C -1.223292  2.760499 0.000000
C  1.223292 -2.760499 0.000000
C -1.223292 -2.760499 0.000000
C  2.760499  1.223292 0.000000
C -2.760499  1.223292 0.000000
C  2.760499 -1.223292 0.000000
C -2.760499 -1.223292 0.000000
H  0.000000  4.481408 0.000000
H  0.000000 -4.481408 0.000000
H  4.481408  0.000000 0.000000
H -4.481408  0.000000 0.000000
H  4.514620  2.604530 0.000000
H -4.514620  2.604530 0.000000
H  4.514620 -2.604530 0.000000
H -4.514620 -2.604530 0.000000
H  2.604530  4.514620 0.000000 
H -2.604530  4.514620 0.000000 
H  2.604530 -4.514620 0.000000 
H -2.604530 -4.514620 0.000000 

