32
-2 1
C        3.40723200      -2.26505700     3.69545800
C       3.23893100      -1.85165600     2.23096200
O       3.97485200      -0.92831500     1.76881300
O       2.36027400      -2.49796600     1.59023700
C       -3.97979500     -1.75326900     -0.26001600
S       -2.81356900     -1.30155800     -1.60380100
C       -3.38679200     1.46534800      2.32373000
S       -2.19229100     0.18243000      2.26294700
C       -3.88106700     2.03478900      1.19788000
S       -3.27154600     1.56305700      -0.36340800
C       1.25807400      1.20381000      -1.81020900
S       -0.36179400     0.60733600      -2.19910500
C       1.62702000      1.50757900      -0.53946800
S       0.47774400      1.40993300      0.79649000
W       -1.35740200     -0.07944200     0.05246700
O       1.52003500      -1.77959600     -0.61569100
C       -0.71317800     -1.68587500     1.00800600
C       -0.32321200     -1.85462300     -0.27022500
H       2.87975600      -1.53809600     4.32675100
H         2.92717700      -3.23662200        3.83719200           
H       -3.45836100     -2.33804200     0.50449700
H       -4.35994800     -0.84525900     0.21057200
H       1.94032900      -2.01801500     0.31258900
H       1.70166500      -0.84084600     -0.77966800
H       -0.66407300     -2.17996000     1.97021200
H       -0.44117200     -2.59727500     -1.04337300
H       1.94608707      1.33553380      -2.64269375
H       2.64469927      1.80311420      -0.29302966
H       -4.82953444     -2.30055227     -0.68126284
H       -3.70233922     1.77964833      3.31639775
H       -4.71164012     2.73559851      1.25039972
H       4.46094041      -2.30977615     3.98994702
