28
0 1
Zr      -0.00647500     0.21532700      0.32455700
C       -1.70622300     -0.82006400     -1.41591600
C       -1.57292300     -1.74054800     -0.36663100
C       -2.29926200     0.35270300      -0.88442000
H       -1.15522600     -2.73316700     -0.43968500
C       -2.08732200     -1.14418500     0.81390000
H       -2.55175400     1.24236300      -1.44321500
C       -2.56174300     0.13874200      0.48082800
H       -2.13435800     -1.60120600     1.79085200
H       -2.98726400     0.85243100      1.16714100
C       1.71249200      -1.68603600     0.29803200
C       1.57921000      -1.40204000     -1.08185600
C       2.33136300      -0.57564900     0.91774900
H       1.14665400      -2.05399500     -1.82466400
C       2.04341900      -0.09969900     -1.29781800
H       2.56729100      -0.48328000     1.96533300
C       2.51134000      0.41585100      -0.05709800
H       2.07369200      0.41365200      -2.24839400
H       2.94157900      1.39207000      0.10812700
C       0.07958700      2.75680200      -1.08554700
H       -0.76723100     3.39943700      -1.31694000
H       1.01778300      3.25552900      -1.31853100
H       -1.40034800     -0.96955100     -2.44058600
H       1.45025700      -2.61506300     0.78342600
N       -0.02232000     1.11810500      1.91924900
H       -0.06206400     1.56098300      2.82638700
H       0.05988100      2.56731400      0.00250700
H       0.00355700      1.86233700      -1.71161400
