28
0 1
Mo 0.20842300 -0.00689900 -0.00143500
C -1.60605000 -0.79599800 -0.62539400
C -0.74709800 2.97034000 0.53367100
H -1.03933500 3.06435500 1.59723900
H -1.59584700 3.31530100 -0.08550100
H 0.10081300 3.65687300 0.35551200
C 2.20332900 -2.46386800 -0.25574300
C 2.33140100 1.81946100 -1.12406000
N -0.39883700 1.62621700 0.22079600
O 1.87533100 0.51660800 -0.83732700
O 0.98332100 -1.79750600 -0.11543600
H 2.09912100 -3.31726300 -0.95269000
H 2.55119800 -2.86640300 0.71653400
H 2.97819000 -1.77998900 -0.65103600
H 3.25691300 1.74564800 -1.72263300
H 2.56853100 2.38346200 -0.20143800
H 1.59047800 2.39729700 -1.70840400
C -0.50088600 -0.58877900 1.87552100
C -1.71378500 -1.04390300 0.96386000
H 0.02284100 -1.43562400 2.32930600
H -0.78542500 0.17647300 2.60401900
H -1.83766100 -2.12546500 1.09757900
H -2.60417000 -0.49359800 1.29253800
C -2.76744200 -0.03777500 -1.23536700
H -2.56606200 0.18108200 -2.29643900
H -3.70307800 -0.62674300 -1.19637300
H -2.94529400 0.91938700 -0.72150500
H -1.42395500 -1.75427500 -1.12894700
