29
0 1
Zr     -0.37484400     -2.32279400      -0.55924800
H       1.52460100      -3.59272100     2.06136200
C       0.35329300      -0.43809400     0.93019100
C       -0.08293500     0.13073500      -0.28055900
C     -0.77267700     -1.02474600     1.55874400
H       0.53305700      0.67246000      -0.97976400
C       -1.48020500     -0.09389500     -0.39716600
H       -0.77061400     -1.55547600     2.49921600
C       -1.90191800     -0.78362000     0.75206100
H       -2.11522200     0.23859400      -1.20359900
H       -2.90233700     -1.13111600     0.94840200
C       0.67882600      -1.65586400     -2.71412600
C       1.30959200      -2.85785800     -2.34257100
C       -0.68019100     -1.94174300     -3.00783300
H       2.34985200      -2.97590300     -2.08941400
C       0.33738900      -3.88591600     -2.39302300
H       -1.42290000     -1.23460800     -3.34341400
C       -0.87793700     -3.32120300     -2.82993600
H       0.49828200      -4.92570100     -2.15096600
H       -1.81259300     -3.84551900     -2.93899000
Cl      -2.46419200     -3.70771300     -0.16887600
C       -0.01306200     -4.82739000     1.29649800
C       1.21125000      -4.29954200     1.30340200
H       -0.75990200     -4.55379800     2.02965500
H       -0.31252800     -5.57089100     0.56967000
H       1.34936700      -2.43872400     0.03330700
H       1.97184200      -4.61084300     0.59864400
H       1.35695100      -0.40948100     1.31993200
H       1.15696700      -0.69296900     -2.79269300
