14
0 1
C        -0.29186     -2.89452      0.00000
H         0.66836     -3.40596      0.00000
H        -1.17802     -3.52183      0.00000
C        -0.37380     -1.55391      0.00000
H        -1.35953     -1.09228      0.00000
C         0.78457     -0.67769      0.00000
H         1.75029     -1.18240      0.00000
C         0.78457      0.67769      0.00000
H         1.75029      1.18240      0.00000
C        -0.37380      1.55391      0.00000
H        -1.35953      1.09228      0.00000
C        -0.29186      2.89452      0.00000
H         0.66836      3.40596      0.00000
H        -1.17802      3.52183      0.00000
