12
0 1
C        -1.20459      0.69547      0.00000
C        -1.20459     -0.69547      0.00000
C        -0.00000     -1.39096      0.00000
C         1.20459     -0.69547      0.00000
C         1.20459      0.69547      0.00000
C        -0.00000      1.39096      0.00000
Cl       -2.68272     -1.54889      0.00000
Cl       -0.00000     -3.09765      0.00000
Cl        2.68272     -1.54889      0.00000
Cl        2.68272      1.54889      0.00000
Cl       -0.00000      3.09765      0.00000
Cl       -2.68272      1.54889      0.00000
