13
0 1
Br        0.00000      0.00000      1.63340
C         0.00000      1.15635     -0.96957
N         0.00000      0.00000     -1.34563
O         0.00000      2.28460     -1.73260
O         0.00000     -2.28460     -1.73260
C         0.00000     -1.15635     -2.12957
C         0.00000     -0.66192     -3.54632
C         0.00000      0.66192     -3.54632
H         0.00000      1.34825     -4.37867
H         0.00000     -1.34825     -4.37867
 P         0.00000      0.00000      3.88809
 C         0.00000      0.00000      5.41387
 H         0.00000      0.00000      6.48582
