8
0 1
N       0.000000000000       0.000000000000      -0.818845000000    
B      -0.000000000000       0.000000000000       0.818845000000    
H       0.000000000000       0.946640000000      -1.181605000000    
H       0.819810000000      -0.473320000000      -1.181605000000    
H      -0.819810000000      -0.473320000000      -1.181605000000    
H       1.011890000000       0.584220000000       1.138705000000    
H      -1.011890000000       0.584220000000       1.138705000000    
H      -0.000000000000      -1.168430000000       1.138705000000  
