8
0 1
B         0.00000      0.00000      0.818845
H         0.00000     -1.18915      0.818845
H         1.02983      0.59457      0.818845
H        -1.02983      0.59457      0.818845
 N       0.000000000000       0.000000000000      -0.818845000000
 H      -0.000000000000      -1.168430000000       1.138705000000
 H       0.000000000000       0.946640000000      -1.181605000000    
 H       0.819810000000      -0.473320000000      -1.181605000000  
