10
0 1
O         -1.00000      0.00000      0.11696
H         -1.00000      0.76357     -0.46785
H         -1.00000     -0.76357     -0.46785
 C         0.49662      0.94532      0.28307
 H         0.99058      1.52182      1.06281
 C        -0.70328      1.43279     -0.20667
 H        -1.00456      1.17162     -1.21776
 H        -1.06756      2.38658      0.15299
 H        -1.82712     -1.39048      0.88955
 S         1.20543     -0.55604     -0.09357
