77

  O     -2.534282   -0.878149   -1.192493
  C     -1.505742   -0.111054   -1.008967
  C     -1.800691    1.284214   -0.459126
  O     -2.896736    1.443674    0.146511
  C     -0.228122   -0.562265   -1.253379
  C      1.072114   -0.045184   -0.911854
  C      2.206969   -0.770748   -1.083939
  C      3.614977   -0.368934   -0.746690
  O      4.448135   -1.312006   -0.762683
  O      3.882651    0.827637   -0.484238
  O     -0.961534    2.185827   -0.636980
  O     -1.903138   -3.060772   -0.024346
  O      1.826158    3.347334   -1.197630
  N     -5.319003    0.169023    0.190888
  C     -5.898175   -0.612225   -0.709115
  N     -5.178643   -1.078136   -1.714626
  C     -5.694003   -1.851804   -2.826681
  N     -7.208587   -0.912146   -0.579173
  N      7.095740   -0.956436   -0.616580
  C      7.530507    0.269778   -0.407063
  N      8.849539    0.565696   -0.333775
  C      9.975400   -0.356295   -0.415996
  N      6.641754    1.243142   -0.245197
  N     -1.502622    4.764214   -0.073335
  C     -2.355213    4.970253    0.902126
  H     -1.929487    6.959540    1.152350
  H     -3.325240    6.418772    1.976205
  H     -3.035723    3.023854    0.911058
  H     -3.498644    4.021691    2.273141
  H     -6.516390   -1.341299   -3.331046
  H     -4.891888   -1.968595   -3.549013
  H     -4.148437   -0.918405   -1.635590
  H     -7.665729   -1.540797   -1.213147
  H     -7.789543   -0.421199    0.073998
  H     -4.334755    0.505356    0.101146
  H     -5.810534    0.412980    1.030748
  H      9.810758   -1.220190    0.227354
  H     10.167119   -0.698835   -1.434818
  H      9.078336    1.543321   -0.371922
  N     -3.101248    3.963091    1.353312
  C     -0.808889    5.812102   -0.786417
  N     -2.496989    6.190461    1.458273
  N      0.463368   -2.480703    1.064425
  C      0.181871   -1.499419    2.153139
  C      1.098216   -1.925102    3.287810
  C      1.097051   -3.442944    3.162352
  C      1.155792   -3.683075    1.655617
  C      0.529357   -4.981251    1.188207
  H      1.053371   -5.820639    1.643715
  H      2.533948    2.707122   -1.065010
  H     -1.904760   -3.761731   -0.679084
  H      1.072653   -2.018891    0.374238
  H     -6.020635   -2.850719   -2.527598
  H     10.861239    0.157239   -0.054428
  H      2.192976   -3.627628    1.318707
  H      1.932935   -3.920456    3.672065
  H      0.175306   -3.860518    3.577068
  H      2.103127   -1.524906    3.136568
  H      0.743535   -1.570914    4.254325
  H      0.356165   -0.493246    1.778841
  H     -0.869271   -1.595335    2.422215
  H     -1.497500    6.460283   -1.330037
  H     -0.180016    6.416950   -0.129600
  H     -1.288333    3.764371   -0.311683
  H      7.725052   -1.671015   -0.934578
  H      6.043088   -1.129297   -0.656503
  H      6.932352    2.136539    0.107956
  H      5.608461    1.076062   -0.327124
  H     -0.137248    5.341692   -1.498381
  H      1.040847    2.806515   -1.312000
  H     -0.201900   -1.542685   -1.727334
  H     -0.446018   -2.736787    0.568439
  H      1.150632    0.922456   -0.432642
  H      2.134440   -1.739330   -1.578574
  H     -2.214329   -2.226786   -0.513495
  H     -0.520043   -5.046999    1.474915
  H      0.604719   -5.101562    0.107253
