112
Coordinates from ORCA-job opt
  C   -0.11283610829506      4.41942298887123     -1.51179595494607
  C   -0.23778883265629      3.50698192703044     -0.46411214163769
  H   6.20805864308939      6.63101433866441      0.29824939387789
  C   7.01249999787836      6.08212899959379     -0.18643499906459
  C   6.42864579360361      4.94039927339543     -0.98549785760621
  O   5.56591610310351      4.21191414497229     -0.52465478167672
  H   7.64962518173526      5.67776754855325      0.60076547350296
  N   6.93053999997732      4.76473499964096     -2.22063199779647
  H   6.58380876352387      4.01687437916601     -2.79717463517529
  H   1.03941170434643      0.01422790023394      5.25097696196535
  C   1.37345300121291     -0.16983000063557      4.22826399867257
  H   0.51446866583228     -0.03536130698398      3.56954865868677
  C   1.95698670740310     -1.56689318874214      4.10308563218018
  O   2.41933679664310     -1.86840308767323      2.80852984069545
  H   6.33327602715597     -4.96925301741852     -1.09089778604371
  C   5.55182399841192     -4.22405899832353     -1.02774999786847
  C   4.43833559227170     -4.42407890587430     -0.22169712997964
  C   5.63106825068821     -3.04467288349270     -1.75713030001084
  C   3.43298105179253     -3.47575688821025     -0.13605626623344
  C   4.62791985025220     -2.08992885925010     -1.68570212448184
  C   3.49750807897801     -2.27612687036467     -0.86932226877237
  O   2.54923203336058     -1.35741700924752     -0.79960709866914
  H   5.33105474104581     -1.31179266596737      3.22171076034767
  C   5.49205599910143     -0.34019199837424      2.76334299793354
  N   4.41568020705407     -0.11236148313508      1.83632801113014
  C   4.41618133926140      0.87370328226082      0.94838155165942
  N   5.34499653210072      1.83436153752612      1.05757921478827
  N   3.53016591838008      0.89293153119081     -0.03095229172179
  C   -2.96897305055853      1.90641669549629      3.92521030056534
  C   -3.03896414951134      0.62874425646130      3.12168008504934
  O   -2.04849461912256      0.11673551031443      2.63129081043150
  C   -2.96765601455419      3.09057602484774      2.96141500597946
  N   -4.28683283911746      0.15934369810254      2.92210710553390
  C   -4.57871098854981     -0.86968299572370      1.97041899968624
  C   -5.89248862128631     -0.55479219577060      1.27034960884416
  O   -6.76249400918795      0.09288571736263      1.81275819512386
  H   -4.66551050394984     -1.85301939132729      2.44920334985175
  N   -6.00875100753060     -1.05705196702967      0.02144344007798
  C   -7.15008299450181     -0.74081899561006     -0.80470300134118
  C   -7.25615956955633      0.74201513128579     -1.21671754047138
  O   -8.32531094859275      1.16814868445752     -1.59753955251751
  H   -8.07970691313669     -0.99157294578400     -0.29555167458505
  N   -6.11927426788485      1.46902134805799     -1.15440305460236
  C   -6.02625737797604      2.86814694445497     -1.52670423246104
  C   -5.42546698372311      3.74260400029210     -0.42618300094535
  H   -1.54475953789744     -0.87808444651642     -4.37313276249908
  C   -0.92314793748966     -0.06556101898930     -4.75402109516328
  C   0.23963716029976      0.17448004324576     -3.84089767311751
  C   0.55247585403382      1.33325006670613     -3.26835280929589
  H   -1.01445793511934     -6.84682126803128     -2.01163204568349
  H   -2.54324109433498     -6.23581768784582     -0.16357005545461
  H   -2.34752541837162     -4.03157915781843      0.91765856098671
  H   -1.30487552732082     -2.02022591864558      1.21896276190423
  H   -0.35759570781623     -0.73752418197676     -1.38007146318011
  H   -1.17343609984564      0.03966963994751      0.00070560249924
  H   1.65604580429261     -1.89333057671844      2.19451948713588
  H   1.34748222859781     -1.60672461375134      0.10054163598144
  H   4.34889577098853     -5.33560076451531      0.35716110501529
  H   2.58199584155467     -3.66174242597455      0.50622735960868
  H   6.48433107228170     -2.86671125441017     -2.40154155531410
  H   4.70053577469842     -1.18457484103975     -2.27795632275970
  H   -0.02946641584871      2.23022526685744     -3.43920693573281
  H   1.40760128376009      1.41622571249630     -2.61020502848887
  H   0.86566856669154     -0.68750895076257     -3.62434667032564
  H   -0.58438540574094     -0.36638501726814     -5.74689422397481
  H   0.41105764415267      2.64458554677671     -0.38856586090576
  H   0.63711288479279      4.29197176489281     -2.27950625941207
  H   -0.76000270486874      5.28246463331450     -1.57979984721478
  H   -0.98311929371536      3.64237459525291      0.30733921313217
  H   -2.52179460198210      1.15247783485050     -2.34775563370763
  H   -1.99545295984344      2.52377837669690     -1.94119923226659
  H   -1.54728377306555      0.82196874222454     -4.85790080999607
  C   -0.93802314222827     -5.87565410300699     -1.54022607381206
  C   -1.79413479642333     -5.53330215750006     -0.50557423884222
  C   -1.68277680761048     -4.29035377439746      0.10114240953547
  C   -0.72461760192271     -3.37506771382706     -0.31513258657257
  C   0.12961175874879     -3.72740462290407     -1.35559615374760
  C   0.02544328485308     -4.96929009490911     -1.96086240235031
  C   -0.63382310017744     -2.02318295369077      0.35516041832394
  C   -1.06420053131761     -0.88245820777238     -0.56556753747298
  O   0.63967694248856     -1.69981617232227      0.82838076998763
  Cl  -2.65784326990207     -1.20552222495028     -1.35904117391623
  O   -2.78744515709714      2.06799762034054     -2.23682406873259
  H   0.70802740542549     -5.23230389139565     -2.75826046373521
  H   2.81000091867529     -1.67548275046466      4.77848662278999
  H   7.62548226320520      5.37366765650422     -2.61043603191864
  H   -6.03853909399108      3.71344170414588      0.47473349083177
  H   -5.36328071910714      4.77661514227775     -0.76576646092875
  H   -4.41584166494474      3.41392554318163     -0.17560166908646
  H   6.45825134947807     -0.36743606110507      2.25803122189317
  H   -5.08148501958045      0.64864711783476      3.30240368226178
  H   -2.12332694369336      3.02452963472402      2.27572738529542
  H   -5.25104116623780      1.01078678425715     -0.93226505194391
  H   -2.88878558241610      4.03397097047866      3.50074031778404
  H   0.89486526171578     -3.03938170113216     -1.69156292885620
  H   7.60513443439923      6.77812693838782     -0.77757367471919
  H   5.37286242216025      2.61736136510257      0.41516317861275
  H   5.80821651134727      1.97499504285997      1.93639712882332
  H   3.61451234991078     -0.74398750367234      1.91865528389580
  H   3.54329387145865      1.68594159090116     -0.64854227691918
  H   3.07364505990436     -0.02820864037061     -0.37931571329249
  H   1.21115354650609     -2.30342769071801      4.42756453806118
  H   -3.88191797944412      3.12443172796325      2.36828758828671
  H   5.53182848514076      0.39996774791544      3.56962856779702
  H   2.11548859964497      0.59108259737356      3.97885697699991
  H   -7.03064967180881      3.20596555389613     -1.77299854635431
  H   -5.41589594177434      2.95632326594222     -2.42731033366699
  H   -7.09936417696428     -1.34801620997623     -1.70905057092432
  H   -5.21741563514094     -1.52219086299409     -0.39138851323679
  H   -3.75947573060220     -0.94356611364265      1.25499772868933
  H   -3.80626222662209      1.99033661332786      4.62205313000713
  H   -2.05218472787637      1.89609432450234      4.51455046669376
