83

  C     -1.299374    1.141554   -3.414556
  C     -0.907322    1.986187   -2.465799
  C     -2.709618    0.921300   -3.865470
  C     -0.503579   -2.701277   -1.669675
  C     -0.014878   -3.728905   -2.459952
  C      0.036472   -5.023200   -1.967660
  C     -0.405675   -5.284944   -0.680023
  C     -0.883234   -4.252727    0.111343
  C     -0.936488   -2.950016   -0.372310
  C     -1.339150   -1.842677    0.573926
  C     -2.068232   -0.676366   -0.079874
  O     -0.236265   -1.314502    1.265189
  O      0.620873   -2.815145    3.429901
  C      1.491675   -1.995076    4.148648
  C      0.899775   -0.645447    4.530021
  O      1.832966   -0.933928   -0.193640
  C      2.446112   -1.971369   -0.735108
  C      2.521368   -3.202946   -0.059270
  C      3.211550   -4.272053   -0.601707
  C      3.856334   -4.161771   -1.827299
  C      3.780221   -2.956002   -2.510496
  C      3.087756   -1.878460   -1.980535
  N      3.109439    1.397293    0.101111
  C      3.910202    1.006513    1.079652
  N      3.746532   -0.205602    1.584999
  C      4.717711   -0.876923    2.406875
  N      4.878063    1.810322    1.537825
  O      4.725251    4.073106   -0.204240
  C      5.559231    4.812555   -0.706098
  C      6.342630    5.789901    0.132640
  N      5.836700    4.791651   -2.018579
  Cl    -3.584513   -1.239202   -0.875485
  O     -5.390053    1.558587   -1.283753
  C     -7.467813    3.796180    1.037939
  N     -7.535815    2.410989    0.646857
  C     -8.508393    1.597722    1.090018
  O     -9.405163    1.918532    1.837356
  H     -6.828380    2.047203    0.020160
  H      2.977690   -0.728625    1.139244
  H      5.299680    1.621257    2.427937
  H      4.948750    2.748069    1.164104
  H      2.479366    0.671074   -0.289438
  H      3.195013    2.319892   -0.287180
  H      0.301684   -2.315567    2.656623
  H      1.770894   -2.538243    5.055963
  H      2.431553   -1.816249    3.603348
  H      3.239230   -5.208940   -0.058615
  H      2.009092   -3.319658    0.889972
  H      0.550118   -1.179843    0.646535
  H      3.036145   -0.944199   -2.528910
  H      4.269456   -2.850000   -3.471885
  H     -8.400249    0.573375    0.687425
  H     -7.322794    3.907928    2.113571
  H     -6.626680    4.258576    0.527110
  H     -8.376315    4.336398    0.767985
  H     -2.994199   -0.124199   -3.734599
  H     -3.409950    1.537754   -3.301904
  H     -1.613419    2.608283   -1.929000
  H     -0.545092    0.539633   -3.913681
  H      0.133178    2.072717   -2.183822
  H      4.397294   -5.000102   -2.245547
  H     -1.206264   -4.458525    1.125561
  H     -0.368232   -6.292507   -0.286355
  H      0.430235   -5.822676   -2.581427
  H      0.348671   -3.511895   -3.455252
  H     -0.515452   -1.693904   -2.067784
  H     -2.013048   -2.268521    1.325008
  H     -1.470186   -0.174825   -0.837997
  H     -2.354371    0.050538    0.677584
  H      4.491745   -1.938969    2.395326
  H      5.731610   -0.752302    2.020373
  H      4.690159   -0.544780    3.448108
  H      1.614271   -0.058995    5.111547
  H      0.632656   -0.066759    3.644608
  H     -0.001448   -0.768764    5.131427
  H      6.951506    6.482845   -0.445122
  H      5.655139    6.364534    0.750279
  H      7.001242    5.239847    0.805189
  H     -2.821061    1.153408   -4.926214
  H      5.361353    4.138663   -2.618590
  H      6.511338    5.406175   -2.434639
  H     -4.853216    0.797017   -1.035055
  H     -5.751582    1.329469   -2.141408
