46
Coordinates from ORCA-job tsopt
  H   -3.47719708915145     -1.22762411711729     -1.14216500492764
  H   -7.28366557288824      2.97520054882019      3.26497207322510
  H   -6.59419365495717      0.70379386437111      2.89652829044599
  H   -5.42389053054578     -1.54233158679966     -2.28900941524208
  C   -6.89257399567421      1.24073100111687      1.98987699711350
  H   -4.66162709850851     -0.64926916513738      0.02628864965569
  O   -5.89901553392917      1.07499923329894      0.99243512598427
  C   -3.74233565846035      1.99472947284782      0.64415461080635
  C   -5.22484323293435      2.28556157770118      0.74209602596280
  C   -6.62808601027429      0.17469700200126     -1.87133499943312
  C   4.81375000737743      1.10468299842579      3.93179000684010
  C   1.40391755941836      0.91841144120811      1.96682342637300
  N   0.92613420552458      0.25965833869141      0.73443981129750
  C   3.34173305793995      1.34923982335125      3.57904713627538
  H   -7.24275011798994     -0.00097991930602     -2.75289818659625
  H   -7.14466986871896     -0.24395289697618     -1.01063061777250
  H   5.08237191062169      1.63645173736479      4.84286200258353
  C   2.87665909539215      0.64640025901353      2.29790448306787
  C   -5.58161987125023      3.21310032836468      1.90221014195682
  S   -3.23595577676508      1.09656587070250     -0.85556306049624
  H   1.51936142931813      0.52619084925434     -0.04551083470922
  C   -5.25925724601806     -0.48057563577185     -2.08511039555146
  C   -4.22371542317513     -0.45513234035013     -0.94937998780006
  C   -6.99037193749449      2.74042084511421      2.24307475705476
  H   -7.72074626612040      3.20221938978823      1.57640158720956
  H   -7.83281668767746      0.80934625660961      1.64149124337860
  H   -5.52985299967523      4.26516284454687      1.62488304933353
  H   -3.18171524776013      2.93049142079129      0.58284408685373
  H   -5.56892672694196      2.72516552937499     -0.20495579833680
  H   -6.55525550234604      1.25330347315081     -1.73637946077999
  H   5.01482315233180      0.04540334092854      4.09374078660043
  H   5.47617971205827      1.45199840231565      3.13832474993512
  H   1.23694488241224      1.99130421611972      1.85128785136955
  H   1.02017951775876     -0.74724166892826      0.82297218125777
  H   3.17215877363119      2.42505616822040      3.47720634862162
  H   2.71440697819612      1.02316622471705      4.41385676032501
  H   3.50117536631868      0.97216396065906      1.45901966450273
  H   3.03392591250363     -0.43257152970692      2.39865569761303
  H   -4.90516816860811      3.05797531970128      2.74813750026647
  H   -4.79825337137352     -0.08342270501314     -2.99268088538114
  H   0.76416525973816      0.58674169312195      2.78684825349869
  H   -0.79839652140719      0.05721534998584     -0.89453176050847
  C   -1.06497715299683      0.59408769121636     -0.00090518253854
  H   -1.47045659513536      0.07012137497765      0.84737479272513
  H   -0.87843248541225      1.65223093808676      0.05926393849797
  H   -3.41057471473457      1.45317737215316      1.53289348131963
