29

  H     -6.241523    0.932912   -2.188445
  C     -5.902299   -0.046500   -1.857200
  C     -5.428306   -0.024547   -0.415569
  S     -4.011185    1.123080   -0.195881
  C     -2.654849    0.042301    0.293809
  C     -4.413560    1.977167    1.360112
  C     -5.548143    2.965626    1.162619
  H     -5.728190    3.476445    2.107571
  H     -6.483845    2.486184    0.877691
  N      0.473245    1.164510    0.918355
  C      1.156927    0.737567    2.142223
  C      2.657752    1.011552    2.191032
  H      3.087988    0.664817    3.130477
  H     -5.099562   -1.004658   -0.069279
  H     -6.741284   -0.736213   -1.939063
  H     -6.211728    0.323778    0.257954
  H      0.631259    2.156751    0.782736
  H     -3.489857    2.481383    1.648260
  H     -5.303897    3.722988    0.419920
  H      0.666471    1.226693    2.986469
  H      0.917613    0.717414    0.124375
  H      2.870423    2.078572    2.106662
  H      3.181771    0.501578    1.380894
  H     -5.126283   -0.390445   -2.539234
  H      0.974973   -0.331720    2.268778
  H     -2.457519   -0.626668   -0.542040
  H     -2.932549   -0.529955    1.176792
  H     -1.751072    0.636569    0.493389
  H     -4.636271    1.217162    2.110466
