72
Coordinates from ORCA-job tsopt2
  C   -6.58176998867865     -1.70172699471778      2.00431899644712
  C   -5.82596301303168     -2.07356339088843      3.10476757303782
  C   -5.95701135602240     -1.07153729801081      0.93694837314390
  C   -4.46232750457182     -1.82111785160380      3.14301011096705
  C   -4.59560939378122     -0.81210559918900      0.96220712420134
  C   -3.84762152645551     -1.18803046576933      2.07042910267795
  O   -2.51004049054539     -0.91571048537002      2.06632580528983
  C   -5.25580901173729      3.74765800569822     -0.25450900037842
  C   -4.56953347157472      2.80882602801142      0.50358782440734
  C   -4.62841131054947      4.32326942675702     -1.34823948134604
  C   -3.27060540038882      2.44783135259793      0.17928733088104
  C   -3.33268994568506      3.96391570542250     -1.68939122844788
  C   -2.65508380101847      3.02411970168524     -0.92370141052352
  O   -1.38329948091735      2.62845050743904     -1.22546448153421
  C   -3.79342601274312     -3.70402500587875     -2.78727300058654
  C   -2.34385582537059     -3.23618406117920     -2.60813331328034
  C   -2.17752299125028     -2.04261062142117     -1.66088007347352
  C   -0.71574254069771     -1.60660258996921     -1.49583985382741
  N   -0.51238383553136     -0.44504378041603     -0.61658719771205
  C   6.69849100298297      2.28732200381247      1.62636599822277
  C   5.19707897567022      2.51255361764418      1.84200895779132
  C   4.21122233683033      1.36329134433784      1.56969469070885
  S   3.70353226514143      1.19213290279738     -0.19372802203658
  C   4.41887700029108     -0.35899726352931     -0.82163013577912
  C   5.92436758745837     -0.46809874186686     -0.71243599997549
  O   6.26164257641300     -0.65550312834145      0.64082401805919
  C   6.48982421936600     -1.67945962489429     -1.44868436182733
  H   3.94590979857699     -1.20876235747537     -0.32467014107506
  C   7.75880327076775     -1.94574143070355     -0.64683277937516
  H   8.56816694950384     -1.29843832452196     -0.98921371614860
  C   7.32712901520601     -1.58438800675712      0.77194600649583
  H   -0.28934887417058     -1.36275856424259     -2.47228782855081
  H   -6.29550512264134     -2.56486001538616      3.94618475467041
  H   -3.88733463453981     -2.12313567729786      4.01239583285699
  H   -2.13546508982224     -1.16751191703851      2.91487072516761
  H   -4.11989131130742     -0.31185786238024      0.12926840269727
  H   -6.53296582645854     -0.77212395057293      0.07132068088001
  H   -5.04527715871554      2.34578153906020      1.35801578979794
  H   -2.73765027242479      1.72672332852604      0.78694598572124
  H   -1.06320594181916      3.13659558580731     -1.97587188506771
  H   -2.85929000992936      4.42187355907275     -2.55168202658865
  H   -5.14862340625880      5.05787044779746     -1.94808133632500
  H   -7.64408027097193     -1.89968343790533      1.97791474548478
  H   -6.26700102266572      4.02742604391986      0.00521404130172
  H   -3.84404581257063     -4.54713946833145     -3.47434785463403
  H   -4.22922781793877     -4.01919270710122     -1.83892679133781
  H   -4.41968280518140     -2.90724608145601     -3.19017651812218
  H   -1.92791352416096     -2.97768318248577     -3.58663183641173
  H   -1.74348112626599     -4.07297682526355     -2.23818506659120
  H   -2.76417577179222     -1.19632006855139     -2.03372753950883
  H   -2.59111760972041     -2.29443411502706     -0.67995882606002
  H   -0.12593964786681     -2.43553306615586     -1.09735274464793
  H   -0.92744312780769     -0.62256114045241      0.29360569664154
  H   -0.98949340187203      0.37197428727333     -0.98639235634929
  H   7.23685380396815      3.18568908594538      1.92388700040892
  H   7.06844615822078      1.45606960110692      2.22255274657821
  H   6.93903886600646      2.08964229498527      0.58231468104055
  H   4.87148627337268      3.39524984531249      1.28647674102449
  H   3.27553576192427      1.57637256894986      2.08944542348497
  H   4.12385560311895     -0.36900782651938     -1.87362261914706
  H   6.38582515549837      0.45031077836010     -1.10413178929634
  H   5.80349424969099     -2.52899736429180     -1.38116729564806
  H   6.67523840322152     -1.47975509801038     -2.50342270577337
  H   8.10723314145387     -2.97421667801002     -0.72753926509023
  H   4.57815475182378      0.40093263220710      1.91783329265176
  H   6.96954626619711     -2.46349911782009      1.31693081452674
  H   8.13574083500110     -1.13801208087882      1.35464365180429
  H   1.05658034489780      1.30771355166670     -0.08766675728351
  C   1.53159525702529      0.36747437618284     -0.31035592052248
  H   1.67525570627892     -0.36131569764932      0.46846377455535
  H   1.69406958065112      0.08756718267033     -1.33666428383161
  H   5.04458402822617      2.76583302456260      2.89489821513138
