29

  H     -6.183277    0.956964   -2.171545
  C     -5.902299   -0.046500   -1.857200
  C     -5.481249   -0.066779   -0.398589
  S     -4.023261    0.993959   -0.097030
  C     -0.781877    0.359388    0.576294
  C     -4.530447    1.869379    1.414934
  C     -5.548143    2.965626    1.162619
  H     -5.826401    3.450975    2.099200
  H     -6.461870    2.574685    0.714674
  N      0.685032    0.267661    0.855020
  C      1.165716    1.146125    1.975106
  C      2.657752    1.011552    2.191032
  H      2.955956    1.666687    3.007467
  H     -5.255762   -1.081706   -0.070564
  H     -6.757004   -0.706031   -2.008875
  H     -6.289821    0.304070    0.232852
  H      1.203186    0.501080    0.005857
  H     -3.616608    2.292978    1.836603
  H     -5.149863    3.723867    0.490649
  H      0.882199    2.164292    1.711852
  H      0.931083   -0.701328    1.065208
  H      3.231777    1.310853    1.313733
  H      2.945796   -0.001966    2.470597
  H     -5.102924   -0.390740   -2.513324
  H      0.599212    0.856078    2.859218
  H     -1.040966   -0.310057   -0.237559
  H     -1.335902    0.078856    1.466257
  H     -1.026750    1.378981    0.296683
  H     -4.898545    1.139934    2.138570
