46
Coordinates from ORCA-job opt
  H   -4.39924957944031     -1.82187997412732     -0.55654706230387
  H   -7.01540214824374      1.76900609032130      4.31335513694359
  H   -7.37473056609587      0.56212939678991      2.26298502350138
  H   -6.17140297432129     -1.52703660641105     -2.08124205053858
  C   -6.90470201380728      1.54342400215595      2.14222600196009
  H   -5.59162590654286     -0.85381909860744      0.32901813172398
  O   -5.74794492927289      1.41694102723711      1.31712579014409
  C   -3.58211158484180      0.52296598017438      1.63730189507098
  C   -4.56791608703407      1.59766104651966      2.06848067461082
  C   -6.71429800230694      0.52443999739984     -1.73601800197498
  C   4.78708701538334      0.76351700002717      4.01878400277059
  C   1.26460043971257      0.27663661246793      2.36386418823706
  N   0.36273937816265      1.06615990910546      1.51803864905058
  C   3.47766426533248      0.08817309550152      3.61803640495191
  H   -7.23396583202782      0.62244303968363     -2.68717653471685
  H   -7.45962875403320      0.30879191692263     -0.97100389475486
  H   5.40022619900117      0.09957559847546      4.62648124419747
  C   2.57558003339804      0.96197801383293      2.74927016651118
  C   -4.98046449324665      1.52841144331707      3.53498269264247
  S   -3.64150924954712      0.40552319745787     -0.17991060646687
  H   0.16437059198318      1.94227146491207      1.98804485559224
  C   -5.67626274230098     -0.58770563509292     -1.82309186625554
  C   -4.92292971212248     -0.86577619172261     -0.52874409097191
  C   -6.40038714765542      2.08650063196587      3.47281690491759
  H   -6.38465409628128      3.17744623200589      3.46868619030950
  H   -7.62103262836483      2.20401730250423      1.65273354216987
  H   -4.31985198547444      2.09983033403378      4.18496927859153
  H   -2.55161179099573      0.78479347499710      1.89051220778619
  H   -4.13631231528344      2.58133666735982      1.84068880834041
  H   -6.26641576523788      1.48982831936462     -1.50285709276452
  H   5.37281091850258      1.04524559701995      3.14263936761380
  H   4.60600867503270      1.66976854021717      4.59801609763237
  H   0.71795389548760     -0.00445978781066      3.26791415048934
  H   0.86441829776241      1.33576143479350      0.67880887045338
  H   2.93333216820233     -0.20779360736708      4.51995858273987
  H   3.69907791076263     -0.84085556937697      3.08421122448712
  H   2.35360821371799      1.89636290294159      3.27751689104145
  H   3.11367537711764      1.24994387650997      1.83883878797643
  H   -4.98825473091060      0.49444870017044      3.89056860698777
  H   -4.97371163235155     -0.40029078316396     -2.63924311258738
  H   1.47947759052656     -0.65917188143654      1.84174605392503
  H   -1.95757438884208     -0.50943693341801     -1.59006331661040
  C   -2.10674180018811     -0.48021600830680     -0.51299360791609
  H   -2.15744135752319     -1.49042741707499     -0.11254768117590
  H   -1.28890863720543      0.06240697266148     -0.02976263271416
  H   -3.81412214298080     -0.46046406863413      2.05160942923613
