48
0, 2
C    -2.7845511   -0.5111027    1.2336197
N    -1.4383665   -0.3924469    1.4208983
C    -1.2495148   -0.3324166    2.7706038
C    -2.5133057   -0.4076609    3.4594364
C    -3.4694496   -0.5239331    2.5021484
Fe   -0.0031705   -0.3738275    0.0000000
N    -1.4383665   -0.3924469   -1.4208983
C    -1.2495148   -0.3324166   -2.7706038
C    -2.5133057   -0.4076609   -3.4594364
C    -3.4694496   -0.5239331   -2.5021484
C    -2.7845511   -0.5111027   -1.2336197
C    -0.0186857   -0.2348246   -3.4043831
C     1.2145133   -0.2110979   -2.7681033
N     1.4104599   -0.2525531   -1.4181488
C     2.7621747   -0.2451034   -1.2325591
C     3.4432493   -0.1924923   -2.5013577
C     2.4793209   -0.1653642   -3.4571453
C    -3.4201076   -0.5763148    0.0000000
C     3.4015327   -0.2534650    0.0000000
C     2.7621747   -0.2451034    1.2325591
N     1.4104599   -0.2525531    1.4181488
C     1.2145133   -0.2110979    2.7681033
C     2.4793209   -0.1653642    3.4571453
C     3.4432493   -0.1924923    2.5013577
C    -0.0186857   -0.2348246    3.4043831
H    -4.5023637   -0.6708905    0.0000000
H    -4.5420541   -0.6114700   -2.6252802
H    -2.6338813   -0.3814934   -4.5354706
H    -0.0186935   -0.1992788   -4.4900857
H     2.5953553   -0.1255657   -4.5332104
H     4.5190764   -0.1769711   -2.6253198
H     4.4877060   -0.2480271    0.0000000
H     4.5190764   -0.1769711    2.6253198
H     2.5953553   -0.1255657    4.5332104
H    -0.0186935   -0.1992788    4.4900857
H    -2.6338813   -0.3814934    4.5354706
H    -4.5420541   -0.6114700    2.6252802
N    -0.1029127    1.7254072    0.0000000
C    -1.2111753    2.4338651    0.0000000
N    -0.9270416    3.7543961    0.0000000
C     0.4406185    3.8949543    0.0000000
C     0.9352400    2.6215428    0.0000000
H    -2.2124479    2.0285465    0.0000000
H    -1.6036657    4.5008801    0.0000000
H     0.9223084    4.8604422    0.0000000
H     1.9613598    2.2856257    0.0000000
N     0.1571452   -2.1427379    0.0000000
O     0.9886878   -2.9587288    0.0000000
