39
0, 4
Fe -0.0035633 -0.0428629  0.0000000
N  -1.4146137  0.2278155  1.4117022
N   1.4113128  0.2359238  1.4114548
N  -1.4146137  0.2278155 -1.4117022
N   1.4113128  0.2359238 -1.4114548
C   1.2263742  0.2414156 -2.7807811
C   2.7788563  0.2740073 -1.2279300
C   3.4586382  0.3045607 -2.4968589
C   2.4937525  0.2821056 -3.4618211
C  -0.0012140  0.2285639 -3.4252285
C  -1.2291712  0.2371421 -2.7814190
C  -2.4962903  0.2796627 -3.4622108
C  -3.4616579  0.3009312 -2.4973198
C  -2.7826781  0.2681743 -1.2282331
C  -3.4274900  0.2792713  0.0000000
C  -2.7826781  0.2681743  1.2282331
C  -3.4616579  0.3009312  2.4973198
C  -2.4962903  0.2796627  3.4622108
C  -1.2291712  0.2371421  2.7814190
C  -0.0012140  0.2285639  3.4252285
C   1.2263742  0.2414156  2.7807811
C   2.4937525  0.2821056  3.4618211
C   3.4586382  0.3045607  2.4968589
C   2.7788563  0.2740073  1.2279300
C   3.4236877  0.2844591  0.0000000 
H   4.5133003  0.3108357  0.0000000
H   4.5380321  0.3409104 -2.6180013
H   2.6140702  0.2970890 -4.5417348
H  -0.0009735  0.2329998 -4.5151538
H  -2.6164691  0.2978684 -4.5420925
H  -4.5409495  0.3392069 -2.6189880
H  -4.5170526  0.3098036  0.0000000
H  -4.5409495  0.3392069  2.6189880
H  -2.6164691  0.2978684  4.5420925
H  -0.0009735  0.2329998  4.5151538
H   2.6140702  0.2970890  4.5417348
H   4.5380321  0.3409104  2.6180013
S   0.0613742 -2.3862483  0.0000000
H  -1.2824008 -2.5522533  0.0000000

