37
0, 2
Co 0.0000000  0.0000000 0.0000000
N  1.3998964 -1.3998964 0.0000000 
N  1.3998964  1.3998964 0.0000000
N -1.3998964 -1.3998964 0.0000000
N -1.3998964  1.3998964 0.0000000
C -2.7727596  1.2225070 0.0000000
C -1.2225070  2.7727596 0.0000000
C -2.4910762  3.4543958 0.0000000
C -3.4543958  2.4910762 0.0000000
C -3.4206766  0.0000000 0.0000000
C -2.7727596 -1.2225070 0.0000000
C -3.4543958 -2.4910762 0.0000000
C -2.4910762 -3.4543958 0.0000000
C -1.2225070 -2.7727596 0.0000000
C  0.0000000 -3.4206766 0.0000000
C  1.2225070 -2.7727596 0.0000000
C  2.4910762 -3.4543958 0.0000000
C  3.4543958 -2.4910762 0.0000000
C  2.7727596 -1.2225070 0.0000000
C  3.4206766  0.0000000 0.0000000
C  2.7727596  1.2225070 0.0000000
C  3.4543958  2.4910762 0.0000000
C  2.4910762  3.4543958 0.0000000
C  1.2225070  2.7727596 0.0000000
C  0.0000000  3.4206766 0.0000000
H  0.0000000  4.5105984 0.0000000
H -2.6084190  4.5347716 0.0000000
H -4.5347716  2.6084190 0.0000000
H -4.5105984  0.0000000 0.0000000
H -4.5347716 -2.6084190 0.0000000
H -2.6084190 -4.5347716 0.0000000
H  0.0000000 -4.5105984 0.0000000
H  2.6084190 -4.5347716 0.0000000
H  4.5347716 -2.6084190 0.0000000
H  4.5105984  0.0000000 0.0000000
H  4.5347716  2.6084190 0.0000000
H  2.6084190  4.5347716 0.0000000


