77

  O     -2.462707   -0.778924   -1.554990
  C     -1.608099   -0.248884   -0.867384
  C     -1.988381    1.052593   -0.157474
  O     -3.057028    1.052583    0.496839
  C     -0.266450   -0.897161   -0.693998
  C      1.007070   -0.109523   -0.575633
  C      2.104411   -0.507518   -1.216142
  C      3.506750   -0.009661   -0.992591
  O      4.384796   -0.844923   -1.311792
  O      3.706748    1.124246   -0.505121
  O     -1.223676    2.004504   -0.347437
  O     -2.804799   -2.745696   -3.749400
  O      1.479241    3.358327   -0.656756
  N     -5.542235   -0.223008    0.313558
  C     -6.098715   -0.918235   -0.670930
  N     -5.385867   -1.231940   -1.737891
  C     -5.867407   -1.941798   -2.911308
  N     -7.383761   -1.294978   -0.563863
  N      6.956544   -0.442209   -1.023804
  C      7.350402    0.691024   -0.486028
  N      8.657304    0.950782   -0.269584
  C      9.756977    0.054148   -0.571858
  N      6.441472    1.595418   -0.138267
  N     -1.901303    4.566097    0.446801
  C     -2.736572    4.631393    1.458546
  N     -3.381909    3.539090    1.866472
  H     -3.261424    2.641088    1.375042
  H     -3.754087    3.506229    2.798346
  H     -6.591782   -1.348555   -3.471271
  H     -5.007285   -2.149227   -3.541810
  H     -4.398856   -0.985810   -1.714729
  H     -7.830049   -1.828144   -1.288104
  H     -7.972074   -0.937752    0.165743
  H     -4.576578    0.139588    0.276719
  H     -6.030216   -0.106037    1.182734
  H      9.598763   -0.924869   -0.118936
  H      9.918306   -0.069504   -1.645107
  H      8.896505    1.894545   -0.023932
  H      7.623513   -1.080945   -1.416658
  C     -1.303249    5.713002   -0.202990
  N     -2.967261    5.793817    2.089609
  N      1.260672   -2.863067    1.344356
  C      1.482283   -2.083596    2.547970
  C      0.427683   -2.637101    3.517055
  C      0.107501   -4.043077    2.969644
  C      1.075255   -4.233230    1.797157
  C      0.562181   -5.144742    0.700414
  H      0.399747   -6.154198    1.078744
  H      2.279179    2.819722   -0.639268
  H     -2.276953   -2.523634   -4.517202
  H      2.018874   -2.767012    0.680617
  H     -6.307974   -2.904631   -2.646199
  H     10.663835    0.467297   -0.140680
  H      2.017657   -4.653512    2.189628
  H      0.220580   -4.827698    3.717088
  H     -0.921232   -4.090617    2.605679
  H      0.801450   -2.661486    4.540165
  H     -0.464971   -2.010584    3.521334
  H      2.488119   -2.231554    2.967712
  H      1.369092   -1.015685    2.351252
  H     -2.050420    6.338788   -0.691754
  H     -0.711247    6.316892    0.487405
  H     -1.621061    3.620420    0.130177
  H     -2.454755    6.623357    1.851620
  H     -3.766138    5.907874    2.685660
  H      5.909917   -0.632393   -1.142800
  H      6.703224    2.385623    0.422055
  H      5.419892    1.432861   -0.286789
  H     -0.609652    5.341350   -0.951259
  H      0.783900    2.724452   -0.842896
  H     -0.166984   -1.641998   -1.487121
  H     -0.345220   -1.505420    0.227274
  H      1.058610    0.697843    0.144808
  H      2.036250   -1.345905   -1.903789
  H     -2.416943   -2.251939   -3.020527
  H     -0.383501   -4.773180    0.301852
  H      1.270617   -5.215262   -0.126544
