21
-1 1
Mo      0.63239300      0.28890300      1.38743600
O       0.67657900      1.76390800      2.20132700
S       -1.36351500     -0.81546200     2.04763100
C       -2.59183100     -0.39817500     0.84927500
C       -2.23524600     0.12602500      -0.34452400
S       -0.53630800     0.44865400      -0.70160100
O       2.32922900      0.42191200      0.12678000
S       1.89240900      -1.22823200     2.41067400
C       -3.16742800     0.47501200      -1.46775800
C       -3.99049500     -0.74120400     1.27310800
H       2.66261200      1.33276000      0.06850400
H       -2.84862000     -0.01704400     -2.40277100
H       -4.20531400     0.17553300      -1.26201700
H       -3.16019300     1.56082200      -1.66525600
H       -4.72421000     -0.60507000     0.46533400
H       -4.04534700     -1.79031500     1.61044600
H       -4.30595500     -0.11909700     2.12842400
H        3.24142800      -0.87520800     1.45936700
C        3.66554100      -0.41647300     0.33455500
O        4.68476000      0.26665600      0.32403700
H        3.50654700      -1.29064200     -0.34811300
