25
0 1
W       -0.44115900     0.21115800      -0.03775100
O       -1.30682200     -1.53866900     -0.15472500
O       -0.02564200     2.02509000      0.47259400
O       -2.15120700     0.82772700      -0.50210400
C       0.79704800      -0.50974100     1.35197700
C       1.04183900      -0.10608600     -1.12509400
C       1.56379300      -0.56640900     0.20960400
C       1.17704100      2.71404700      0.55696600
H       0.99804600      3.76488800      0.84007800
H       1.84092100      2.25684000      1.31982900
H       1.71939100      2.68947000      -0.40931100
C       -3.47014900     0.37884100      -0.35159400
H       -4.08249500     0.81239000      -1.15770500
H       -3.49767900     -0.72209900     -0.41334800
H       -3.88481800     0.70377300      0.61743300
C       -0.76808500     -2.81577600     -0.22116500
H    -0.16116800     -2.94609700     -1.14036700
H       -0.10010800     -3.01991800     0.64175000
H       -1.57087300     -3.57294900     -0.22195000
C       1.10205300      -0.91700900     2.74090500
H       1.04795900      -0.05063800     3.42079900
H       0.36307000      -1.64841500     3.10672700
H       2.10476600      -1.36407700     2.83479600
H       1.64552900      -0.17625000     -2.02526800
H       2.57781600      -0.97734200     0.19365500
