25
0 1
W       -0.80241300     0.02689500      0.05154600
O       -0.34896600     -1.56406400     -0.83380700
O       0.47131700      1.37926700      -0.30849400
O       -2.58302500     0.56258800      -0.24104200
C       -0.67053000     -0.30328000     1.76554900
C       2.83420900      -0.26164800     -1.94860800
C       3.81354400      -0.86825500     -2.31984000
C       1.34834000      2.16670100      0.46414400
H       1.05184800      3.22600700      0.39348900
H       1.33156000      1.85312300      1.52014700
H       2.37487400      2.06558500      0.07330900
C       -3.74406100     0.73612900      0.53146800
H       -4.54864900     0.09372900      0.13683700
H        -3.55773900     0.47719100      1.58666700
H       -4.07579300     1.78579800      0.46833000
C       0.12997700      -2.84430700     -0.50103900
H       1.14264900      -2.97246000     -0.91686400
H       0.16544700      -2.97976500     0.59216400
H       -0.53160200     -3.60783300     -0.94189600
C       -0.56264400     -0.59689000     3.20900400
H       -0.88272100     0.26335400      3.82077900
H       -1.19294400     -1.45675800     3.49193600
H       0.47489400      -0.83922000     3.49435100
H       1.96683200      0.28180600      -1.61143600
H       4.68043500      -1.40617800     -2.65157000
