25
0 1
W       -0.51119200     0.03031700      -0.19793200
O       -0.56088200     -1.59245200     -1.19226500
O       0.30037500      1.71325400      -0.56807700
O       -2.32404300     0.49683000      -0.16247600
C       -0.12524200     -0.38287800     1.46246000
C       2.14125600      -0.42151700     -1.41796900
C       2.36710200      -0.71490800     -0.26181600
C       1.19805000      2.57026600      0.07940100
H       1.00923000      3.60839100      -0.24279000
H         1.08694300        2.51234600        1.17578100            
H       2.23958800      2.31058200      -0.18113300
C       -3.31519400     0.57929400      0.82569200
H       -4.14373700     -0.10505700     0.57649100
H       -2.91259500     0.31208400      1.81697700
H       -3.71291500     1.60751400      0.86404200
C       -0.22912800     -2.93384700     -0.97148300
H       0.83069500      -3.11775300     -1.22245400
H       -0.39415300     -3.21845100     0.08187000
H       -0.85385900     -3.57562700     -1.61567500
C       0.17667500      -0.73228900     2.86453300
H       0.01528000      0.12141800      3.54436600
H       -0.44849300     -1.56825100     3.22152800
H       1.23020100      -1.04440000     2.98291700
H       1.96490700      -0.16575600     -2.44573000
H       2.63073700      -0.98830300     0.74141700
