19
0 1
Re     0.31437900     -0.71601900     -0.03848200
O     -0.25839700     -0.37431900     1.47730100
O     2.19976500     -0.73926800     0.11601400
O     1.72675300     0.53159100     -0.35235400
O     -1.18378400     -1.30626300     -1.03304200
O     -0.92443300     0.08759500     -1.25303700
C     -0.58195400     3.20653600     0.72564800
C     -0.74528800     3.51670900     -0.55048800
H     -0.07971000     4.20661700     -1.05707700
H     -1.55052300     3.09152300     -1.13865200
H     0.22455200     3.62715900     1.31530700
C     0.56425500     -2.79150300     0.24830900
H     0.94484000     -3.21690100     -0.67706300
H     1.27523600     -2.94611000     1.05867900
H     -0.40317000     -3.22575200     0.49665900
O     1.16708500     -1.28068800     -2.27339800
H     0.49313000     -0.95149500     -2.87669000
H     1.93265300     -0.70845900     -2.38799200
H     -1.24743000     2.51681000     1.23228600
