   25

 C   -0.223913000   0.002109000   0.127404000
 C   -0.229554000   0.001265000   1.520572000
 C    0.966066000  -0.002100000   2.235729000
 C    2.176417000  -0.004636000   1.545888000
 C    2.194095000  -0.003818000   0.152623000
 C    0.992179000  -0.000449000  -0.552274000
 Br   -1.869237000   0.004669000   2.446186000
 H    0.946534000  -0.002734000   3.316252000
 H    3.104760000  -0.007248000   2.100804000
 H    3.135463000  -0.005789000  -0.378706000
 H    0.996880000   0.000205000  -1.633817000
 H   -1.159029000   0.004715000  -0.414303000
N   -4.469679000   0.003227000   3.932338000
C   -5.295499000  -1.075498000   3.424183000
C   -4.176880000  -0.203431000   5.337800000
C   -5.128463000   1.280412000   3.735655000
H   -5.087995000  -0.220714000   5.956688000
H   -3.655388000  -1.150355000   5.467942000
H   -3.531737000   0.595910000   5.698936000
H   -6.089881000   1.341697000   4.269886000
H   -4.485402000   2.083207000   4.092686000
H   -5.314942000   1.436913000   2.674407000
H   -6.265731000  -1.138956000   3.941964000
H   -5.482507000  -0.924686000   2.362192000
H   -4.776575000  -2.024443000   3.549517000
