22
1 1
Au -1.11804600 -0.23850100 -0.00249200
C 1.89069100 -1.00164200 -0.04954500
C 0.65706200 -1.26997300 0.02031800
C 4.20597600 1.08700000 -0.32063800
C 2.80610700 1.59545900 -0.37587100
C 1.92875600 1.44880500 0.62272200
H 4.84690800 1.81966000 0.18175300
H 4.60186200 0.98592800 -1.33383600
H 2.48264100 2.08668800 -1.28859700
H 2.20427700 1.04392600 1.58937000
P -3.13048100 0.81695900 -0.03698100
H -4.26244600 -0.00278600 -0.17783100
H -3.34717700 1.75674600 -1.05849400
H -3.47888800 1.56753800 1.09841700
H 0.91357400 1.81344900 0.52881600
C 4.28866900 -0.25019400 0.40412300
H 4.07964100 -0.14683500 1.46974900
H 5.29375900 -0.66323500 0.31720700
C 3.30805700 -1.23590800 -0.22993100
H 3.44829300 -2.23069700 0.21884200
H 3.51834800 -1.33343000 -1.29982800
H 0.47013800 -2.35103300 0.07893700
