21
0 1
C -1.37210000 -0.14963900 0.01867300
C -1.01028200 0.15400400 -1.11159400
C -4.26022000 0.47846900 0.91227700
C -4.55394300 0.62753800 -0.54999800
C -4.38460900 -0.27607300 -1.50523800
H -5.22432300 0.44237000 1.43313500
H -3.78761700 1.39966500 1.27254100
H -4.98779900 1.58635200 -0.82338900
H -3.96708800 -1.25893000 -1.32004100
H -4.67016900 -0.06026600 -2.52738500
H -0.97915700 0.43381300 -2.14189400
C -1.90606300 -0.49685100 1.32253500
H -1.64387900 0.30651400 2.01841100
H -1.39369400 -1.40202100 1.66080600
C -3.42604400 -0.72317900 1.33876500
H -3.66902600 -0.97998200 2.37167300
H -3.67311400 -1.60280400 0.74233200
Au 0.94879300 0.02615700 -0.11334800
Cl 3.14077200 0.03379200 0.42793800
Cl 0.87046800 2.30665700 0.03777400
Cl 0.96057000 -2.25908300 -0.24713800
