29
1 1
C 0.43053700 -1.66367900 0.03164100
C 0.79913300 -0.49735900 0.17612000
C 0.29849500 -3.10348500 -0.09492000
H 1.29631800 -3.52863900 0.04712900
H -0.36461000 -3.51042000 0.66865900
H -0.07304700 -3.38883500 -1.07921900
C 1.71238500 0.64506800 0.43126300
O 2.94094300 0.49182300 -0.27422000
C 3.70226500 -0.62418900 -0.07566000
O 3.35490000 -1.53403000 0.62043300
C 1.09478400 1.96201900 -0.08776200
O -0.10781200 2.06816300 -0.15768500
C 2.02228100 3.07216300 -0.43737700
H 2.49081100 2.84024200 -1.39798000
H 1.46386500 4.00111400 -0.52075800
H 2.83336800 3.16741700 0.28480900
C 4.97700300 -0.52659300 -0.84339600
H 5.53502600 -1.45164700 -0.73240400
H 4.77102700 -0.33109600 -1.89634600
H 5.56963900 0.30929600 -0.46720000
C 1.93375300 0.81475300 1.93907500
H 0.98721600 1.04275100 2.42923300
H 2.34216600 -0.10167100 2.35782300
H 2.63009500 1.63459000 2.11648500
Au -1.35111300 -0.25571800 -0.07973200
P -3.59475700 0.03597400 -0.30154700
H -4.04003900 1.36814200 -0.32380100
H -4.19254900 -0.47221900 -1.46609500
H -4.41896200 -0.51302700 0.69392500
