36
0 1
C 1.29182600 -1.26839900 0.07197300
C 0.69871600 -0.76101100 1.23841100
C 1.45010500 0.04694600 2.09890200
C 2.77215000 0.36166500 1.80547900
C 3.34605100 -0.16119500 0.64688500
C 2.60767500 -0.97039000 -0.21937100
H -0.26402300 -1.11863800 1.58015400
H 3.34648700 0.99191300 2.46569700
H 3.07341900 -1.31746300 -1.13179900
C 0.48260500 -2.05993900 -0.87475800
C 0.91524900 -3.29946200 -1.32653200
C -0.73388900 -1.55019200 -1.37543400
C 0.16429000 -4.02812400 -2.23766200
H 1.84601000 -3.70135100 -0.94460700
C -1.47850800 -2.28220500 -2.29284900
C -1.03277300 -3.52206300 -2.71832500
H 0.51813000 -4.99621300 -2.57059600
H -2.41227600 -1.87700800 -2.65991200
H -1.62040400 -4.08879300 -3.42922100
C -1.13255100 -0.24293900 -0.91663200
C -0.83387300 0.58341700 -0.02791900
H -0.79607100 1.43828500 0.61175100
Au -2.57929500 1.02059300 -1.81482900
Cl -0.93423200 2.24999300 -2.82273300
Cl -4.18842400 2.14711900 -2.97215000
Cl -4.16579100 -0.26141800 -0.77030500
O 0.80424300 0.47597700 3.19774300
O 4.61209300 0.07954500 0.27430800
C 1.50709900 1.26920100 4.13004000
H 1.83701200 2.21222100 3.68424900
H 0.80587600 1.47987300 4.93387700
H 2.37081000 0.73423300 4.53531100
C 5.41169900 0.91772100 1.07971500
H 6.37728600 0.97807000 0.58348100
H 4.98387100 1.92147300 1.15707300
H 5.54768400 0.49826100 2.08093900
