21
0 1
C 1.79867700 0.09111300 0.08247600
C 0.89956300 0.64465900 0.76977000
C 4.61435200 0.15337900 -0.84818700
C 4.16162600 1.03265100 0.27002200
C 3.75388500 0.56694800 1.45877900
H 5.67471600 -0.09262900 -0.72645600
H 4.53332600 0.69536000 -1.79343200
H 4.13268500 2.10352500 0.09443000
H 3.81088600 -0.48063700 1.72791400
H 3.40755500 1.24164600 2.23103700
H 0.87101800 1.37422200 1.55834800
C 2.29788700 -0.76822300 -0.98284500
H 2.08849300 -0.27956300 -1.93997000
H 1.68266600 -1.67462300 -0.92078000
C 3.78158200 -1.12080600 -0.90421500
H 4.04487700 -1.71441100 -1.78007600
H 3.96749400 -1.74903600 -0.03176700
Au -0.97989500 0.03966200 0.09869200
Cl -3.12212600 -0.45521200 -0.51968700
Cl -1.30649300 2.26476400 -0.32372100
Cl -0.55064200 -2.17163600 0.53218900
