28
0 1
C       -2.13896300     -1.14425700     -0.50377200
C       -1.13912300     2.71237500      -0.72457900
H       -1.16543600     3.53056300      0.01807900
H       -2.16821900     2.57720000      -1.10506800
H       -0.51059900     3.04320300      -1.57200700
C       1.80617100      -2.34083000     -1.09835400
C       2.67253500      1.63728000      0.18933900
N       -0.63594600     1.51590600      -0.13279600
O       1.97316200      0.48991500      -0.22942400
O       0.68979500      -1.76442300     -0.46016500
H       1.54287300      -2.66146400     -2.12365100
H       2.13490800      -3.23379100     -0.53612100
H       2.64229700      -1.62193200     -1.14918700
H       3.67843100      1.63372000      -0.26686200
H       2.78306700      1.65518300      1.29125400
H       2.15192000      2.56544600      -0.11582700
C       0.12091000      -0.00978800     2.14550700
C       -1.99496800     -1.44007900     0.81973100
H       0.63728000      -0.82232400     2.68380300
H       -0.33194500     0.73837600      2.80558300
H       -1.42123100     -2.30984300     1.13922300
H       -2.57771600     -0.92041300     1.58338400
C       -3.15311400     -0.17990200     -1.05409900
H       -2.76183500     0.38520400      -1.91320700
H       -4.03020200     -0.74664800     -1.41645200
H       -3.50039200     0.53190200      -0.29084200
H       -1.63407600     -1.79208100     -1.22610900
W       0.15837800      -0.01566600     0.22199200
