23
0 1
Zr     -0.25889200     -2.36609400     -0.52295800
C       -0.07989900     -0.80975900       1.46825700
C         0.33477300     -0.01055400       0.37178500
C       -1.44738700     -1.08370900       1.30906800
H       1.32980000       0.38231700       0.21534100
C       -0.78882500       0.23980700     -0.43885600
H       -2.05158200     -1.68612300     1.96938200
C       -1.88212800     -0.45302900     0.11416900
H       -0.79668800     0.81188200      -1.35348400
H       -2.89084300     -0.46115800     -0.27472300
C       0.54489600      -1.59927100     -2.88955300
C       1.19196700      -2.82337300     -2.56745800
C       -0.82398500     -1.85881600     -3.02587900
H       2.25288500      -2.96083800     -2.41267600
C       0.22020000      -3.84125300     -2.54640800
H       -1.59128600     -1.13579400     -3.25824400
C       -1.03182400     -3.24427700     -2.78691900
H       0.39299600      -4.87764000     -2.30795600
H       -1.97954700     -3.76232200     -2.83114900
H       0.54634500      -1.16706800     2.27069400
H       1.02684500      -0.63928700     -2.99862800
N       -0.06053400     -3.85591000     0.51650400
H       0.05565100      -4.70035100     1.05911300
