25
0 1
Re     -1.94616200     7.40153200     -0.10627500
C     -0.59747300     8.38597700     -1.12201600
C     -3.47234600     8.24649100     -0.99237300
C     -2.03185700     6.18731900     -1.58762700
Br     -2.19232800     9.48064000     1.37846700
O     -2.07897800     5.48505500     -2.49421300
O     0.20818200     8.95348200     -1.69589600
O     -4.39311400     8.69843300     -1.48163200
C     -3.00257700     4.99997400     1.56042600
C     -3.20971900     6.32100000     1.41255600
C     -1.80087100     4.42753800     0.87931700
C     -1.10734500     3.35620900     1.71339900
O     -1.61225500     2.78816500     2.64045400
O     0.11833300     3.10967100     1.25212400
C     -0.88000700     5.56925600     0.47399100
O     -0.67516900     6.53019800     1.39043800
H     -1.89350400     6.55666000     1.78579100
C     0.84301600     2.09358300     1.95041000
H     1.80951800     2.03013100     1.45848400
H     0.96221300     2.36658700     2.99828700
H     0.31624700     1.14188600     1.88749000
H     -4.04038700     6.79113700     1.92741300
H     -2.11364500     3.92024600     -0.04277300
H     -0.00344200     5.31323000     -0.11323700
H     -3.59871800     4.33275700     2.17659000
