17
0 1
Mo      0.04737000      -0.17461300     0.01277400
O       0.44858000      -1.65929200     -0.92960200
O       1.88238600      -0.74831000     -0.39972900
O       -0.13150300     -0.41747000     1.67078600
O       0.66057200      1.63358600      -0.28539100
O       -0.73681100     1.50301400      -0.54251000
C       3.34245500      0.20760900      0.88125300
C       3.46349900      0.55367600      -0.42633600
H       4.09040100      -0.02643200     -1.10538800
H       3.83740400      -0.67869100     1.28202900
H       2.75734100      0.81434900      1.57639900
H       3.00052300      1.46103000      -0.81874500
O       -2.00869800     -0.75198500     -0.32235300
P       -3.11710500     0.20689400      0.10026100
H       -3.01188000     0.70815100      1.41770200
H       -3.28636300     1.34821800      -0.71316100
H       -4.37230300     -0.44033500     0.06165900
