27
-1 1
  N     -3.532675   -0.084885   -0.072800
  C     -4.551133   -0.895860   -0.697516
  C     -1.644646    1.687901    1.305233
  C     -1.300421    0.374007    0.703599
  C     -2.294363   -0.578523    0.138969
  O     -1.986751   -1.730739   -0.104827
  N     -0.076370   -0.059896    0.649154
  C      1.087843    0.628175    0.845510
  C      2.344075   -0.156118    1.098794
  C      2.655817   -1.158683    0.019702
  O      1.827723   -1.675519   -0.685228
  O      3.946360   -1.465488   -0.031369
  C      1.317302    1.594725   -0.941462
  O      2.490132    1.595650   -1.134681
  O      0.222958    1.914854   -1.278239
  H     -4.726747   -1.802871   -0.122265
  H     -3.667409    0.910238   -0.063741
  H      4.078504   -2.127684   -0.723103
  H     -2.664490    1.690937    1.686909
  H     -0.994109    1.914449    2.152557
  H     -1.534251    2.504710    0.589681
  H      0.020366   -0.984542    0.214691
  H      0.979785    1.505038    1.477343
  H      2.309014   -0.702941    2.051103
  H      3.171291    0.546561    1.189347
  H     -4.279565   -1.187635   -1.713315
  H     -5.477035   -0.327239   -0.732358
