12
0 1
C        -1.19880      0.69213      0.00000
C        -1.19880     -0.69213      0.00000
C         0.00000     -1.38425      0.00000
C         1.19880     -0.69213      0.00000
C         1.19880      0.69213      0.00000
C         0.00000      1.38425      0.00000
H        -2.13315     -1.23158      0.00000
H         0.00000     -2.46315      0.00000
H         2.13315     -1.23158      0.00000
H         2.13315      1.23158      0.00000
H         0.00000      2.46315      0.00000
H        -2.13315      1.23158      0.00000
