8
0 1
Si        0.00000      0.00000      1.16091
Si        0.00000      0.00000     -1.16091
H         1.19703      0.69110      1.67796
H         0.00000     -1.38221      1.67796
H        -1.19703      0.69110      1.67796
H         1.19703     -0.69110     -1.67796
H         0.00000      1.38221     -1.67796
H        -1.19703     -0.69110     -1.67796
