6
0 1
O         0.00000      0.00000      0.39394
H        -0.75504      0.00000     -0.19697
H         0.75504      0.00000     -0.19697
 O       3.035986997840       0.000000000000       0.385054678053    
 H       2.789409860756      -0.488389071324      -0.403789939396    
 H       3.775718409091      -0.436710315367       0.813635521839  

