6
1 2
O      -0.035986997840       0.000000000000       0.385054678053    
H      -0.849046997840       0.000000000000      -0.192685321947    
H       0.777073002160       0.000000000000      -0.192685321947    
 O       3.000000000000       0.000000000000       0.393940000000    
 H       3.098235912155      -0.925539950128       0.158726254056    
 H       2.705292263536       0.069108736432       1.304967624508    
