12
0 1
S         0.00000      0.00000      0.06725
C         0.00000      1.36148     -1.11768
C         0.00000     -1.36148     -1.11768
H        -0.89163      1.32617     -1.74153
H         0.89163      1.32617     -1.74153
H         0.00000      2.28856     -0.54885
H        -0.89163     -1.32617     -1.74153
H         0.00000     -2.28856     -0.54885
H         0.89163     -1.32617     -1.74153
 C       0.000000000000       0.000000000000      -1.654369160000    
 H       0.948166890000      -0.280006070000      -2.083650430000    
 H      -0.922134010000      -0.206170040000      -2.181546450000 
