11
0 1
C       0.369210000000      -1.614940000000       0.000000000000    
P       0.000000000000       0.000000000000       0.000000000000    
B      -0.851210000000      -2.523260000000       0.000000000000    
B       1.825020000000      -2.044630000000       0.000000000000    
F      -0.851210000000       0.544690000000       1.173740000000    
F      -0.851210000000       0.544690000000      -1.173740000000    
F       1.179810000000       0.991500000000       0.000000000000    
H      -0.688770000000      -3.701310000000       0.000000000000    
H      -1.962430000000      -2.078900000000       0.000000000000    
H       2.717420000000      -1.253050000000       0.000000000000    
H       2.063470000000      -3.210470000000       0.000000000000 
