7
0 3
C         0.00000      0.00000      0.00728
H         0.00000      0.98455     -0.22184
H         0.00000     -0.98455     -0.22184
 P       0.000000000000      -0.000000000000      -1.678460000000
 H      -0.670570000000       1.110820000000      -2.204340000000    
 H      -0.670570000000      -1.110820000000      -2.204340000000    
 H       1.119760000000      -0.000000000000      -2.569930000000  
