12
0 3
C         0.00000      0.00000     -1.60728
H         0.00000      0.98455     -2.32184
H         0.00000     -0.98455     -2.32184
 S      -0.000000000000       0.000000000000       0.000000000000    
 C      -0.923893770000      -1.407301610000       0.741998000000    
 C      -1.211806930000       1.246837430000       0.494448910000    
 H      -1.908122270000      -1.459622850000       0.277068470000    
 H      -1.009920150000      -1.279713690000       1.821177210000    
 H      -0.351656160000      -2.301388310000       0.507833620000    
 H      -2.140810150000       1.052891810000      -0.040363810000    
 H      -0.805725660000       2.209254850000       0.197203510000    
 H      -1.371336070000       1.203683080000       1.570670620000 
