8
0 1
S         -2.19676709      0.90993072     -0.49248551
S         -2.19676709     -0.90993072      0.49248551
S         -0.90993072     -2.19676709     -0.49248551
S          0.90993072     -2.19676709      0.49248551
S          2.19676709     -0.90993072     -0.49248551
S          2.19676709      0.90993072      0.49248551
S          0.90993072      2.19676709     -0.49248551
S         -0.90993072      2.19676709      0.49248551
