17

C   -0.022632781   0.158889311  -0.003491152
N   -1.034258337  -0.697533791   0.152948303
N   -0.072073363   1.381821873   0.487979803
N    1.062328053  -0.233142965  -0.675554069
H   -0.920522620   1.713004355   0.912119915
H    1.204431006  -1.196369662  -0.918176231
H    1.826844953   0.406007458  -0.798617863
H   -1.049138495  -1.576370701  -0.331757120
H    0.758041219   2.014066447   0.417577832
H   -1.851470832  -0.438033553   0.674514141
 N    2.205816672   3.206806552   0.359313079
 C    1.698390514   4.308229306   1.205115825
 H    2.441586674   3.587333844  -0.550899421
 H    2.398485192   5.134840497   1.307392607
 H    0.777293980   4.692896460   0.774661617
 H    1.476510522   3.922926331   2.196969866
 H    3.088220754   2.890331968   0.746631587