21

C  	  2.61605 	  0.16873 	  0.15212
C  	  2.20267 	 -1.14171 	 -0.01604
C  	  0.85942 	 -1.43887 	 -0.19955
C  	 -0.05586 	 -0.40551 	 -0.20721
C  	  0.35920 	  0.91196 	 -0.03738
C  	  1.69568 	  1.20783 	  0.14005
H  	  2.02094 	  2.22964 	  0.27301
C  	 -0.81267 	  1.84659 	 -0.09373
H  	 -0.76140 	  2.62814 	  0.66480
C  	 -2.02056 	  0.91804 	  0.09681
H  	 -2.90109 	  1.25598 	 -0.44463
H  	 -2.27945 	  0.85615 	  1.15516
C  	 -1.56006 	 -0.47859 	 -0.36662
N  	 -2.23873 	 -1.52767 	  0.37401
H  	 -1.97630 	 -1.48437 	  1.35411
H  	 -1.97037 	 -2.44011 	  0.02243
H  	 -1.80521 	 -0.62774 	 -1.42679
H  	 -0.84673 	  2.33217 	 -1.07308
H  	  0.54152 	 -2.46421 	 -0.33159
H  	  2.93040 	 -1.94000 	 -0.00351
H  	  3.66475 	  0.38456 	  0.29574
