37
0, 6
Mn 0.0000000  0.0000000 0.0000000 
N  1.4738556 -1.4738556 0.0000000
N  1.4738556  1.4738556 0.0000000
N -1.4738556 -1.4738556 0.0000000
N -1.4738556  1.4738556 0.0000000
C -2.8332230  1.2619984 0.0000000
C -1.2619984  2.8332230 0.0000000
C -2.5415329  3.5105554 0.0000000
C -3.5105554  2.5415329 0.0000000
C -3.4499254  0.0000000 0.0000000
C -2.8332230 -1.2619984 0.0000000
C -3.5105554 -2.5415329 0.0000000
C -2.5415329 -3.5105554 0.0000000
C -1.2619984 -2.8332230 0.0000000
C  0.0000000 -3.4499254 0.0000000
C  1.2619984 -2.8332230 0.0000000
C  2.5415329 -3.5105554 0.0000000
C  3.5105554 -2.5415329 0.0000000
C  2.8332230 -1.2619984 0.0000000
C  3.4499254  0.0000000 0.0000000
C  2.8332230  1.2619984 0.0000000
C  3.5105554  2.5415329 0.0000000
C  2.5415329  3.5105554 0.0000000
C  1.2619984  2.8332230 0.0000000
C  0.0000000  3.4499254 0.0000000
H  0.0000000  4.5414704 0.0000000
H -2.6807481  4.5889816 0.0000000
H -4.5889816  2.6807481 0.0000000
H -4.5414704  0.0000000 0.0000000
H -4.5889816 -2.6807481 0.0000000
H -2.6807481 -4.5889816 0.0000000
H  0.0000000 -4.5414704 0.0000000
H  2.6807481 -4.5889816 0.0000000
H  4.5889816 -2.6807481 0.0000000
H  4.5414704  0.0000000 0.0000000
H  4.5889816  2.6807481 0.0000000
H  2.6807481  4.5889816 0.0000000


