43
0, 4
Fe 0.0000000000  0.0000000000  0.0000000000
O  0.0000000000  0.0000000000  1.9174721543
H  0.0000000000  0.8512356706  2.3887553132
N  0.0000000000  0.0833843549 -2.0950635000
H  0.0000000000 -0.8535657409 -2.5098986850
H  0.8231270000  0.5718964071 -2.4613546131
H -0.8231270000  0.5718964071 -2.4613546131
N  1.4426750000  1.4556121237 -0.0740923142
N  1.4333360000 -1.4266732172 -0.1274085337
N -1.4426750000  1.4556121237 -0.0740923142
N -1.4333360000 -1.4266732172 -0.1274085337
C -2.7945200000 -1.2250547243 -0.0960541253
C -1.2396000000 -2.7874291465 -0.1404659898
C -2.5149600000 -3.4657754124 -0.1261593765
C -3.4782430000 -2.4975921659 -0.0972085711
C -3.4320970000  0.0136756091 -0.0669622309
C -2.8021340000  1.2575005998 -0.0555707083
C -3.4839650000  2.5312719214 -0.0237131562
C -2.5171850000  3.4971692110 -0.0206255684
C -1.2427540000  2.8153187477 -0.0499449118
C  0.0000000000  3.4490020155 -0.0440472567
C  1.2427540000  2.8153187477 -0.0499449118
C  2.5171850000  3.4971692110 -0.0206255684
C  3.4839650000  2.5312719214 -0.0237131562
C  2.8021340000  1.2575005998 -0.0555707083
C  3.4320970000  0.0136756091 -0.0669622309
C  2.7945200000 -1.2250547243 -0.0960541253
C  3.4782430000 -2.4975921659 -0.0972085711
C  2.5149600000 -3.4657754124 -0.1261593765
C  1.2396000000 -2.7874291465 -0.1404659898
C  0.0000000000 -3.4242737008 -0.1540056426
H  0.0000000000 -4.5146830329 -0.1595454205
H -2.6440160000 -4.5450848955 -0.1293634639
H -4.5578610000 -2.6215949698 -0.0736064163
H -4.5224100000  0.0088166902 -0.0446228781
H -4.5632860000  2.6585442250 -0.0022603381
H -2.6438320000  4.5765925100  0.0032508958 
H  0.0000000000  4.5394049956 -0.0219479229
H  2.6438320000  4.5765925100  0.0032508958 
H  4.5632860000  2.6585442250 -0.0022603381
H  4.5224100000  0.0088166902 -0.0446228781
H  4.5578610000 -2.6215949698 -0.0736064163
H  2.6440160000 -4.5450848955 -0.1293634639

