21

C  	 -2.57992 	  0.35487 	 -0.16133
C  	 -2.30903 	 -0.97281 	  0.12482
C  	 -1.00370 	 -1.39724 	  0.32836
C  	  0.01693 	 -0.47031 	  0.24893
C  	 -0.25419 	  0.86409 	 -0.04099
C  	 -1.55295 	  1.28433 	 -0.24871
H  	 -1.76806 	  2.31940 	 -0.47228
C  	  1.01247 	  1.66707 	 -0.09141
H  	  1.25717 	  1.91192 	 -1.12888
C  	  2.06300 	  0.72765 	  0.52407
H  	  2.17967 	  0.94987 	  1.58460
H  	  3.03573 	  0.81260 	  0.04405
C  	  1.50567 	 -0.69946 	  0.36088
N  	  2.07561 	 -1.33180 	 -0.82605
H  	  1.82753 	 -0.79287 	 -1.65029
H  	  1.69162 	 -2.26352 	 -0.94423
H  	  1.76568 	 -1.33637 	  1.21269
H  	  0.92666 	  2.60575 	  0.45657
H  	 -0.79204 	 -2.43350 	  0.55280
H  	 -3.12002 	 -1.68332 	  0.19137
H  	 -3.60129 	  0.67068 	 -0.31660
