21

C  	 -2.62852 	 -0.14904 	  0.14282
C  	 -2.20309 	  1.15906 	 -0.01170
C  	 -0.85610 	  1.44883 	 -0.17831
C  	  0.05321 	  0.41064 	 -0.17920
C  	 -0.37466 	 -0.90529 	 -0.02765
C  	 -1.71505 	 -1.19368 	  0.13205
H  	 -2.04809 	 -2.21458 	  0.25196
C  	  0.78676 	 -1.85209 	 -0.08831
H  	  0.73009 	 -2.63357 	  0.66953
C  	  2.00208 	 -0.93439 	  0.10312
H  	  2.87963 	 -1.28427 	 -0.43892
H  	  2.25186 	 -0.86432 	  1.16242
C  	  1.55034 	  0.46667 	 -0.35383
N  	  2.16851 	  1.49454 	  0.46793
H  	  1.79967 	  2.40886 	  0.23130
H  	  3.17072 	  1.51192 	  0.31205
H  	  1.76832 	  0.59959 	 -1.43382
H  	  0.81460 	 -2.33699 	 -1.06865
H  	 -0.53337 	  2.47292 	 -0.29988
H  	 -2.92536 	  1.96234 	 -0.00206
H  	 -3.68026 	 -0.35855 	  0.27335
