21

C  	 -2.59464 	 -0.32639 	  0.15413
C  	 -2.30474 	  0.99769 	 -0.12759
C  	 -0.99161 	  1.40676 	 -0.31451
C  	  0.01525 	  0.46801 	 -0.22121
C  	 -0.27384 	 -0.86305 	  0.06298
C  	 -1.57975 	 -1.26796 	  0.25381
H  	 -1.81037 	 -2.30028 	  0.47424
C  	  0.98466 	 -1.67455 	  0.12415
H  	  1.24553 	 -1.86035 	  1.16839
C  	  2.02831 	 -0.76435 	 -0.54078
H  	  2.09324 	 -0.99083 	 -1.60588
H  	  3.01638 	 -0.87934 	 -0.09898
C  	  1.50178 	  0.67221 	 -0.35631
N  	  2.02056 	  1.23805 	  0.88580
H  	  1.53248 	  2.09760 	  1.11234
H  	  3.00818 	  1.45021 	  0.79266
H  	  1.74196 	  1.29875 	 -1.23516
H  	  0.88939 	 -2.63676 	 -0.37959
H  	 -0.76755 	  2.44083 	 -0.53702
H  	 -3.10626 	  1.71794 	 -0.20413
H  	 -3.62179 	 -0.63003 	  0.29578
